<?xml version="1.0" ?>
<!DOCTYPE plans SYSTEM "http://www.matsim.org/files/dtd/plans_v4.dtd">
<plans xml:lang="de-CH"><person id="1"><plan selected="yes"><act type="h" x="-14445056.919618234" y="3987619.0525423065" end_time="02:58:00" /><leg mode="car" /><act type="h" x="-14441477.248939762" y="3989659.623644377" start_time="02:58:00" end_time="10:58:00" /></plan></person><person id="2"><plan selected="yes"><act type="h" x="-14445097.863922726" y="3987692.0692201233" end_time="02:35:00" /><leg mode="car" /><act type="h" x="-14441494.794093339" y="3989675.866039299" start_time="02:35:00" end_time="10:35:00" /></plan></person><person id="3"><plan selected="yes"><act type="h" x="-14445078.544332009" y="3987679.842565532" end_time="02:00:00" /><leg mode="car" /><act type="h" x="-14441485.795317963" y="3989677.4589831065" start_time="02:00:00" end_time="10:00:00" /></plan></person><person id="4"><plan selected="yes"><act type="h" x="-14445117.3666368" y="3987633.1528255716" end_time="04:01:00" /><leg mode="car" /><act type="h" x="-14441491.301726552" y="3989675.802771438" start_time="04:01:00" end_time="12:01:00" /></plan></person><person id="5"><plan selected="yes"><act type="h" x="-14445078.544332009" y="3987679.842565532" end_time="04:07:00" /><leg mode="car" /><act type="h" x="-14441585.168484792" y="3989662.9400011203" start_time="04:07:00" end_time="12:07:00" /></plan></person><person id="6"><plan selected="yes"><act type="h" x="-14445029.01153079" y="3987867.282003432" end_time="04:54:00" /><leg mode="car" /><act type="h" x="-14441483.08043127" y="3989674.41338012" start_time="04:54:00" end_time="12:54:00" /></plan></person><person id="7"><plan selected="yes"><act type="h" x="-14445051.99490575" y="3987665.09986139" end_time="10:14:00" /><leg mode="car" /><act type="h" x="-14441448.75642729" y="3989564.453361409" start_time="10:14:00" end_time="18:14:00" /></plan></person><person id="8"><plan selected="yes"><act type="h" x="-14445039.530313222" y="3987656.212275761" end_time="10:29:00" /><leg mode="car" /><act type="h" x="-14441494.72495417" y="3989676.4930683062" start_time="10:29:00" end_time="18:29:00" /></plan></person><person id="9"><plan selected="yes"><act type="h" x="-14445082.207725246" y="3987713.6368521904" end_time="10:52:00" /><leg mode="car" /><act type="h" x="-14441493.764501508" y="3989678.1510856804" start_time="10:52:00" end_time="18:52:00" /></plan></person><person id="10"><plan selected="yes"><act type="h" x="-14445079.886821972" y="3987670.2383801593" end_time="10:19:00" /><leg mode="car" /><act type="h" x="-14441493.764501508" y="3989678.1510856804" start_time="10:19:00" end_time="18:19:00" /></plan></person><person id="11"><plan selected="yes"><act type="h" x="-14445031.556918032" y="3987706.1763069164" end_time="10:00:00" /><leg mode="car" /><act type="h" x="-14441485.691833058" y="3989675.6850323444" start_time="10:00:00" end_time="18:00:00" /></plan></person><person id="12"><plan selected="yes"><act type="h" x="-14445118.1115893" y="3987796.2940158024" end_time="10:16:00" /><leg mode="car" /><act type="h" x="-14441560.865961306" y="3989590.6656661364" start_time="10:16:00" end_time="18:16:00" /></plan></person><person id="13"><plan selected="yes"><act type="h" x="-14445113.048240712" y="3987642.4855793905" end_time="10:42:00" /><leg mode="car" /><act type="h" x="-14441448.75642729" y="3989564.453361409" start_time="10:42:00" end_time="18:42:00" /></plan></person><person id="14"><plan selected="yes"><act type="h" x="-14445071.238385787" y="3987679.6456874553" end_time="10:02:00" /><leg mode="car" /><act type="h" x="-14441462.169580815" y="3989587.7901480864" start_time="10:02:00" end_time="18:02:00" /></plan></person><person id="15"><plan selected="yes"><act type="h" x="-14445023.711468412" y="3987718.474566959" end_time="10:41:00" /><leg mode="car" /><act type="h" x="-14441448.75642729" y="3989564.453361409" start_time="10:41:00" end_time="18:41:00" /></plan></person><person id="16"><plan selected="yes"><act type="h" x="-14445116.551786026" y="3987553.9655969124" end_time="10:58:00" /><leg mode="car" /><act type="h" x="-14441469.869796675" y="3989603.8060657056" start_time="10:58:00" end_time="18:58:00" /></plan></person><person id="17"><plan selected="yes"><act type="h" x="-14445079.822345031" y="3987681.8156030555" end_time="20:27:00" /><leg mode="car" /><act type="h" x="-14441548.905695569" y="3989563.2391181546" start_time="20:27:00" end_time="04:27:00" /></plan></person><person id="18"><plan selected="yes"><act type="h" x="-14445027.849087471" y="3987834.678020377" end_time="12:00:00" /><leg mode="car" /><act type="h" x="-14449107.159315664" y="3988905.3041976052" start_time="12:00:00" end_time="20:00:00" /></plan></person><person id="19"><plan selected="yes"><act type="h" x="-14445028.554850131" y="3987710.8918141453" end_time="12:07:00" /><leg mode="car" /><act type="h" x="-14449095.805184228" y="3989073.0259637437" start_time="12:07:00" end_time="20:07:00" /></plan></person><person id="20"><plan selected="yes"><act type="h" x="-14445027.908852277" y="3987641.844820829" end_time="12:51:00" /><leg mode="car" /><act type="h" x="-14449095.805184228" y="3989073.0259637437" start_time="12:51:00" end_time="20:51:00" /></plan></person><person id="21"><plan selected="yes"><act type="h" x="-14445097.863922726" y="3987692.0692201233" end_time="02:36:00" /><leg mode="car" /><act type="h" x="-14443054.52143697" y="3989967.1130969794" start_time="02:36:00" end_time="10:36:00" /></plan></person><person id="22"><plan selected="yes"><act type="h" x="-14445104.144046567" y="3987654.7567130593" end_time="02:15:00" /><leg mode="car" /><act type="h" x="-14443054.52143697" y="3989967.1130969794" start_time="02:15:00" end_time="10:15:00" /></plan></person><person id="23"><plan selected="yes"><act type="h" x="-14445087.090504313" y="3987677.741410865" end_time="20:47:00" /><leg mode="car" /><act type="h" x="-14443054.52143697" y="3989967.1130969794" start_time="20:47:00" end_time="04:47:00" /></plan></person><person id="24"><plan selected="yes"><act type="h" x="-14445085.687703308" y="3987684.5002557794" end_time="20:29:00" /><leg mode="car" /><act type="h" x="-14443082.77218011" y="3989956.6545125055" start_time="20:29:00" end_time="04:29:00" /></plan></person><person id="25"><plan selected="yes"><act type="h" x="-14445057.848488051" y="3987730.993873545" end_time="01:01:00" /><leg mode="car" /><act type="h" x="-14445611.832690762" y="3989898.261650936" start_time="01:01:00" end_time="09:01:00" /></plan></person><person id="26"><plan selected="yes"><act type="h" x="-14445079.886821972" y="3987670.2383801593" end_time="01:45:00" /><leg mode="car" /><act type="h" x="-14445739.301886853" y="3989910.490777338" start_time="01:45:00" end_time="09:45:00" /></plan></person><person id="27"><plan selected="yes"><act type="h" x="-14445056.374896787" y="3987667.6931429743" end_time="02:19:00" /><leg mode="car" /><act type="h" x="-14441040.40255064" y="3986431.6247369642" start_time="02:19:00" end_time="10:19:00" /></plan></person><person id="28"><plan selected="yes"><act type="h" x="-14445060.049453964" y="3987685.373082651" end_time="02:05:00" /><leg mode="car" /><act type="h" x="-14441052.864980742" y="3986447.7279743054" start_time="02:05:00" end_time="10:05:00" /></plan></person><person id="29"><plan selected="yes"><act type="h" x="-14445056.919618234" y="3987619.0525423065" end_time="02:39:00" /><leg mode="car" /><act type="h" x="-14447634.496565208" y="3989705.649773882" start_time="02:39:00" end_time="10:39:00" /></plan></person><person id="30"><plan selected="yes"><act type="h" x="-14445065.378472978" y="3987671.6191141596" end_time="02:43:00" /><leg mode="car" /><act type="h" x="-14447433.567944523" y="3989670.120216741" start_time="02:43:00" end_time="10:43:00" /></plan></person><person id="31"><plan selected="yes"><act type="h" x="-14445028.554850131" y="3987710.8918141453" end_time="02:12:00" /><leg mode="car" /><act type="h" x="-14447413.160682835" y="3989706.285852174" start_time="02:12:00" end_time="10:12:00" /></plan></person><person id="32"><plan selected="yes"><act type="h" x="-14445091.70501398" y="3987687.977278186" end_time="02:13:00" /><leg mode="car" /><act type="h" x="-14447433.567944523" y="3989670.120216741" start_time="02:13:00" end_time="10:13:00" /></plan></person><person id="33"><plan selected="yes"><act type="h" x="-14445117.804147633" y="3987762.0373213673" end_time="02:58:00" /><leg mode="car" /><act type="h" x="-14447634.496565208" y="3989705.649773882" start_time="02:58:00" end_time="10:58:00" /></plan></person><person id="34"><plan selected="yes"><act type="h" x="-14445106.658329714" y="3987699.6574516883" end_time="02:46:00" /><leg mode="car" /><act type="h" x="-14447634.496565208" y="3989705.649773882" start_time="02:46:00" end_time="10:46:00" /></plan></person><person id="35"><plan selected="yes"><act type="h" x="-14445079.822345031" y="3987681.8156030555" end_time="03:26:00" /><leg mode="car" /><act type="h" x="-14447413.160682835" y="3989706.285852174" start_time="03:26:00" end_time="11:26:00" /></plan></person><person id="36"><plan selected="yes"><act type="h" x="-14445024.294334844" y="3987632.440786545" end_time="03:56:00" /><leg mode="car" /><act type="h" x="-14447413.160682835" y="3989706.285852174" start_time="03:56:00" end_time="11:56:00" /></plan></person><person id="37"><plan selected="yes"><act type="h" x="-14445029.01153079" y="3987867.282003432" end_time="03:44:00" /><leg mode="car" /><act type="h" x="-14447413.160682835" y="3989706.285852174" start_time="03:44:00" end_time="11:44:00" /></plan></person><person id="38"><plan selected="yes"><act type="h" x="-14445103.079786006" y="3987696.305212413" end_time="03:27:00" /><leg mode="car" /><act type="h" x="-14447433.567944523" y="3989670.120216741" start_time="03:27:00" end_time="11:27:00" /></plan></person><person id="39"><plan selected="yes"><act type="h" x="-14445041.628600568" y="3987695.7957270816" end_time="04:03:00" /><leg mode="car" /><act type="h" x="-14447433.567944523" y="3989670.120216741" start_time="04:03:00" end_time="12:03:00" /></plan></person><person id="40"><plan selected="yes"><act type="h" x="-14440272.88764472" y="3987857.650402458" end_time="03:43:00" /><leg mode="car" /><act type="h" x="-14440296.500587964" y="3986571.5472637373" start_time="03:43:00" end_time="11:43:00" /></plan></person><person id="41"><plan selected="yes"><act type="h" x="-14440266.74504896" y="3987969.8268333296" end_time="03:01:00" /><leg mode="car" /><act type="h" x="-14440232.429540003" y="3986634.857101194" start_time="03:01:00" end_time="11:01:00" /></plan></person><person id="42"><plan selected="yes"><act type="h" x="-14440268.7061659" y="3987780.5284571717" end_time="03:45:00" /><leg mode="car" /><act type="h" x="-14440296.500587964" y="3986571.5472637373" start_time="03:45:00" end_time="11:45:00" /></plan></person><person id="43"><plan selected="yes"><act type="h" x="-14440389.97936648" y="3987655.756623293" end_time="03:47:00" /><leg mode="car" /><act type="h" x="-14440213.533402521" y="3986682.441474492" start_time="03:47:00" end_time="11:47:00" /></plan></person><person id="44"><plan selected="yes"><act type="h" x="-14440269.697328033" y="3987911.698201383" end_time="03:10:00" /><leg mode="car" /><act type="h" x="-14440227.378776189" y="3986644.3235110007" start_time="03:10:00" end_time="11:10:00" /></plan></person><person id="45"><plan selected="yes"><act type="h" x="-14440272.88764472" y="3987857.650402458" end_time="18:27:00" /><leg mode="car" /><act type="h" x="-14440245.586434508" y="3986615.7460140926" start_time="18:27:00" end_time="02:27:00" /></plan></person><person id="46"><plan selected="yes"><act type="h" x="-14447181.412055038" y="3986334.8450992214" end_time="01:37:00" /><leg mode="car" /><act type="h" x="-14440255.751188507" y="3986915.0552758067" start_time="01:37:00" end_time="09:37:00" /></plan></person><person id="47"><plan selected="yes"><act type="h" x="-14447181.412055038" y="3986334.8450992214" end_time="00:34:00" /><leg mode="car" /><act type="h" x="-14445945.794161472" y="3989813.097150291" start_time="00:34:00" end_time="08:34:00" /></plan></person><person id="48"><plan selected="yes"><act type="h" x="-14447371.800729226" y="3986294.88331661" end_time="00:53:00" /><leg mode="car" /><act type="h" x="-14446020.273341596" y="3989797.715794894" start_time="00:53:00" end_time="08:53:00" /></plan></person><person id="49"><plan selected="yes"><act type="h" x="-14447200.916489746" y="3986352.0500959605" end_time="01:00:00" /><leg mode="car" /><act type="h" x="-14446020.273341596" y="3989797.715794894" start_time="01:00:00" end_time="09:00:00" /></plan></person><person id="50"><plan selected="yes"><act type="h" x="-14447292.733637404" y="3986322.2042695996" end_time="01:51:00" /><leg mode="car" /><act type="h" x="-14445905.192422185" y="3989898.1407514047" start_time="01:51:00" end_time="09:51:00" /></plan></person><person id="51"><plan selected="yes"><act type="h" x="-14447320.279741855" y="3986277.943854647" end_time="04:55:00" /><leg mode="car" /><act type="h" x="-14445945.794161472" y="3989813.097150291" start_time="04:55:00" end_time="12:55:00" /></plan></person><person id="52"><plan selected="yes"><act type="h" x="-14447320.279741855" y="3986277.943854647" end_time="04:12:00" /><leg mode="car" /><act type="h" x="-14445860.511325495" y="3989904.218746685" start_time="04:12:00" end_time="12:12:00" /></plan></person><person id="53"><plan selected="yes"><act type="h" x="-14447219.17842411" y="3986331.6615682603" end_time="11:02:00" /><leg mode="car" /><act type="h" x="-14445856.612791846" y="3989808.4229262155" start_time="11:02:00" end_time="19:02:00" /></plan></person><person id="54"><plan selected="yes"><act type="h" x="-14447223.13925517" y="3986316.2036744882" end_time="11:28:00" /><leg mode="car" /><act type="h" x="-14445945.794161472" y="3989813.097150291" start_time="11:28:00" end_time="19:28:00" /></plan></person><person id="55"><plan selected="yes"><act type="h" x="-14447219.17842411" y="3986331.6615682603" end_time="11:17:00" /><leg mode="car" /><act type="h" x="-14446105.786741389" y="3989844.6087756366" start_time="11:17:00" end_time="19:17:00" /></plan></person><person id="56"><plan selected="yes"><act type="h" x="-14447200.916489746" y="3986352.0500959605" end_time="11:30:00" /><leg mode="car" /><act type="h" x="-14445856.612791846" y="3989808.4229262155" start_time="11:30:00" end_time="19:30:00" /></plan></person><person id="57"><plan selected="yes"><act type="h" x="-14447181.412055038" y="3986334.8450992214" end_time="11:42:00" /><leg mode="car" /><act type="h" x="-14445860.511325495" y="3989904.218746685" start_time="11:42:00" end_time="19:42:00" /></plan></person><person id="58"><plan selected="yes"><act type="h" x="-14447223.13925517" y="3986316.2036744882" end_time="11:08:00" /><leg mode="car" /><act type="h" x="-14445939.254810164" y="3989891.258511583" start_time="11:08:00" end_time="19:08:00" /></plan></person><person id="59"><plan selected="yes"><act type="h" x="-14447219.17842411" y="3986331.6615682603" end_time="11:29:00" /><leg mode="car" /><act type="h" x="-14446105.786741389" y="3989844.6087756366" start_time="11:29:00" end_time="19:29:00" /></plan></person><person id="60"><plan selected="yes"><act type="h" x="-14447219.17842411" y="3986331.6615682603" end_time="11:56:00" /><leg mode="car" /><act type="h" x="-14445979.115641918" y="3989880.478205808" start_time="11:56:00" end_time="19:56:00" /></plan></person><person id="61"><plan selected="yes"><act type="h" x="-14447200.916489746" y="3986352.0500959605" end_time="11:34:00" /><leg mode="car" /><act type="h" x="-14445939.254810164" y="3989891.258511583" start_time="11:34:00" end_time="19:34:00" /></plan></person><person id="62"><plan selected="yes"><act type="h" x="-14447200.916489746" y="3986352.0500959605" end_time="23:07:00" /><leg mode="car" /><act type="h" x="-14446059.735619407" y="3989856.1953369104" start_time="23:07:00" end_time="07:07:00" /></plan></person><person id="63"><plan selected="yes"><act type="h" x="-14447181.412055038" y="3986334.8450992214" end_time="23:29:00" /><leg mode="car" /><act type="h" x="-14445939.254810164" y="3989891.258511583" start_time="23:29:00" end_time="07:29:00" /></plan></person><person id="64"><plan selected="yes"><act type="h" x="-14447219.17842411" y="3986331.6615682603" end_time="23:29:00" /><leg mode="car" /><act type="h" x="-14445978.168187631" y="3989717.4971406716" start_time="23:29:00" end_time="07:29:00" /></plan></person><person id="65"><plan selected="yes"><act type="h" x="-14447320.279741855" y="3986277.943854647" end_time="23:15:00" /><leg mode="car" /><act type="h" x="-14445979.115641918" y="3989880.478205808" start_time="23:15:00" end_time="07:15:00" /></plan></person><person id="66"><plan selected="yes"><act type="h" x="-14447223.13925517" y="3986316.2036744882" end_time="00:43:00" /><leg mode="car" /><act type="h" x="-14443184.8025533" y="3986347.3956175884" start_time="00:43:00" end_time="08:43:00" /></plan></person><person id="67"><plan selected="yes"><act type="h" x="-14447320.279741855" y="3986277.943854647" end_time="00:02:00" /><leg mode="car" /><act type="h" x="-14443109.959572146" y="3986338.4049325697" start_time="00:02:00" end_time="08:02:00" /></plan></person><person id="68"><plan selected="yes"><act type="h" x="-14447200.916489746" y="3986352.0500959605" end_time="16:16:00" /><leg mode="car" /><act type="h" x="-14445013.58255687" y="3986512.1938374573" start_time="16:16:00" end_time="00:16:00" /></plan></person><person id="69"><plan selected="yes"><act type="h" x="-14447181.412055038" y="3986334.8450992214" end_time="16:19:00" /><leg mode="car" /><act type="h" x="-14445058.656693451" y="3986460.3220047243" start_time="16:19:00" end_time="00:19:00" /></plan></person><person id="70"><plan selected="yes"><act type="h" x="-14447223.13925517" y="3986316.2036744882" end_time="16:37:00" /><leg mode="car" /><act type="h" x="-14445074.480088767" y="3986622.7941173497" start_time="16:37:00" end_time="00:37:00" /></plan></person><person id="71"><plan selected="yes"><act type="h" x="-14447320.279741855" y="3986277.943854647" end_time="16:59:00" /><leg mode="car" /><act type="h" x="-14445231.04312946" y="3986570.2055028253" start_time="16:59:00" end_time="00:59:00" /></plan></person><person id="72"><plan selected="yes"><act type="h" x="-14447292.733637404" y="3986322.2042695996" end_time="16:23:00" /><leg mode="car" /><act type="h" x="-14445174.066504218" y="3986635.5039547146" start_time="16:23:00" end_time="00:23:00" /></plan></person><person id="73"><plan selected="yes"><act type="h" x="-14447292.733637404" y="3986322.2042695996" end_time="16:20:00" /><leg mode="car" /><act type="h" x="-14445013.58255687" y="3986512.1938374573" start_time="16:20:00" end_time="00:20:00" /></plan></person><person id="74"><plan selected="yes"><act type="h" x="-14447371.800729226" y="3986294.88331661" end_time="16:07:00" /><leg mode="car" /><act type="h" x="-14445284.29994241" y="3986191.1452309126" start_time="16:07:00" end_time="00:07:00" /></plan></person><person id="75"><plan selected="yes"><act type="h" x="-14447320.279741855" y="3986277.943854647" end_time="16:04:00" /><leg mode="car" /><act type="h" x="-14445189.040232947" y="3986176.48966159" start_time="16:04:00" end_time="00:04:00" /></plan></person><person id="76"><plan selected="yes"><act type="h" x="-14447181.412055038" y="3986334.8450992214" end_time="16:29:00" /><leg mode="car" /><act type="h" x="-14445196.153573655" y="3986253.1016868413" start_time="16:29:00" end_time="00:29:00" /></plan></person><person id="77"><plan selected="yes"><act type="h" x="-14447320.279741855" y="3986277.943854647" end_time="05:06:00" /><leg mode="car" /><act type="h" x="-14445149.298847105" y="3989075.4007952674" start_time="05:06:00" end_time="13:06:00" /></plan></person><person id="78"><plan selected="yes"><act type="h" x="-14447219.17842411" y="3986331.6615682603" end_time="05:23:00" /><leg mode="car" /><act type="h" x="-14445114.321597664" y="3988994.1321558775" start_time="05:23:00" end_time="13:23:00" /></plan></person><person id="79"><plan selected="yes"><act type="h" x="-14447181.412055038" y="3986334.8450992214" end_time="05:14:00" /><leg mode="car" /><act type="h" x="-14445128.029791957" y="3988946.4256072165" start_time="05:14:00" end_time="13:14:00" /></plan></person><person id="80"><plan selected="yes"><act type="h" x="-14447371.800729226" y="3986294.88331661" end_time="05:01:00" /><leg mode="car" /><act type="h" x="-14445114.321597664" y="3988994.1321558775" start_time="05:01:00" end_time="13:01:00" /></plan></person><person id="81"><plan selected="yes"><act type="h" x="-14447292.733637404" y="3986322.2042695996" end_time="08:12:00" /><leg mode="car" /><act type="h" x="-14445173.41354429" y="3989024.8625303805" start_time="08:12:00" end_time="16:12:00" /></plan></person><person id="82"><plan selected="yes"><act type="h" x="-14447320.279741855" y="3986277.943854647" end_time="18:33:00" /><leg mode="car" /><act type="h" x="-14445114.321597664" y="3988994.1321558775" start_time="18:33:00" end_time="02:33:00" /></plan></person><person id="83"><plan selected="yes"><act type="h" x="-14447223.13925517" y="3986316.2036744882" end_time="04:46:00" /><leg mode="car" /><act type="h" x="-14443610.111767555" y="3986278.7692506085" start_time="04:46:00" end_time="12:46:00" /></plan></person><person id="84"><plan selected="yes"><act type="h" x="-14447181.412055038" y="3986334.8450992214" end_time="18:42:00" /><leg mode="car" /><act type="h" x="-14443707.779136056" y="3986334.6924400437" start_time="18:42:00" end_time="02:42:00" /></plan></person><person id="85"><plan selected="yes"><act type="h" x="-14447181.412055038" y="3986334.8450992214" end_time="18:57:00" /><leg mode="car" /><act type="h" x="-14443707.779136056" y="3986334.6924400437" start_time="18:57:00" end_time="02:57:00" /></plan></person><person id="86"><plan selected="yes"><act type="h" x="-14447219.17842411" y="3986331.6615682603" end_time="18:40:00" /><leg mode="car" /><act type="h" x="-14443610.111767555" y="3986278.7692506085" start_time="18:40:00" end_time="02:40:00" /></plan></person><person id="87"><plan selected="yes"><act type="h" x="-14443744.586102434" y="3990002.318420538" end_time="03:07:00" /><leg mode="car" /><act type="h" x="-14446124.849650031" y="3986323.3969400995" start_time="03:07:00" end_time="11:07:00" /></plan></person><person id="88"><plan selected="yes"><act type="h" x="-14441436.222024621" y="3989567.0535875545" end_time="08:40:00" /><leg mode="car" /><act type="h" x="-14445031.556918032" y="3987706.1763069164" start_time="08:40:00" end_time="16:40:00" /></plan></person><person id="89"><plan selected="yes"><act type="h" x="-14441494.72495417" y="3989676.4930683062" end_time="08:17:00" /><leg mode="car" /><act type="h" x="-14445056.374896787" y="3987667.6931429743" start_time="08:17:00" end_time="16:17:00" /></plan></person><person id="90"><plan selected="yes"><act type="h" x="-14441560.865961306" y="3989590.6656661364" end_time="08:55:00" /><leg mode="car" /><act type="h" x="-14445057.754297456" y="3987714.8856767216" start_time="08:55:00" end_time="16:55:00" /></plan></person><person id="91"><plan selected="yes"><act type="h" x="-14441462.169580815" y="3989587.7901480864" end_time="00:48:00" /><leg mode="car" /><act type="h" x="-14445394.780061036" y="3986187.6370845092" start_time="00:48:00" end_time="08:48:00" /></plan></person><person id="92"><plan selected="yes"><act type="h" x="-14441607.85173498" y="3989787.1937011424" end_time="04:08:00" /><leg mode="car" /><act type="h" x="-14445412.92402587" y="3986389.873479978" start_time="04:08:00" end_time="12:08:00" /></plan></person><person id="93"><plan selected="yes"><act type="h" x="-14441488.34792903" y="3989679.535058204" end_time="04:27:00" /><leg mode="car" /><act type="h" x="-14445432.668020964" y="3986215.5246802326" start_time="04:27:00" end_time="12:27:00" /></plan></person><person id="94"><plan selected="yes"><act type="h" x="-14441477.248939762" y="3989659.623644377" end_time="07:47:00" /><leg mode="car" /><act type="h" x="-14445306.934668928" y="3986338.089080492" start_time="07:47:00" end_time="15:47:00" /></plan></person><person id="95"><plan selected="yes"><act type="h" x="-14441572.6964205" y="3989621.3036574726" end_time="07:35:00" /><leg mode="car" /><act type="h" x="-14445361.278044544" y="3986345.425528317" start_time="07:35:00" end_time="15:35:00" /></plan></person><person id="96"><plan selected="yes"><act type="h" x="-14441494.260250587" y="3989677.5881696055" end_time="10:16:00" /><leg mode="car" /><act type="h" x="-14445361.278044544" y="3986345.425528317" start_time="10:16:00" end_time="18:16:00" /></plan></person><person id="97"><plan selected="yes"><act type="h" x="-14441585.168484792" y="3989662.9400011203" end_time="10:33:00" /><leg mode="car" /><act type="h" x="-14445394.000445683" y="3986360.880150347" start_time="10:33:00" end_time="18:33:00" /></plan></person><person id="98"><plan selected="yes"><act type="h" x="-14441473.472435523" y="3989649.252982147" end_time="10:32:00" /><leg mode="car" /><act type="h" x="-14445374.396256205" y="3986180.7230724418" start_time="10:32:00" end_time="18:32:00" /></plan></person><person id="99"><plan selected="yes"><act type="h" x="-14441572.6964205" y="3989621.3036574726" end_time="10:56:00" /><leg mode="car" /><act type="h" x="-14445410.48629733" y="3986409.6948223803" start_time="10:56:00" end_time="18:56:00" /></plan></person><person id="100"><plan selected="yes"><act type="h" x="-14441494.545281835" y="3989677.0375458705" end_time="11:04:00" /><leg mode="car" /><act type="h" x="-14445414.484936064" y="3986199.2212360147" start_time="11:04:00" end_time="19:04:00" /></plan></person><person id="101"><plan selected="yes"><act type="h" x="-14441485.691833058" y="3989675.6850323444" end_time="11:58:00" /><leg mode="car" /><act type="h" x="-14445361.278044544" y="3986345.425528317" start_time="11:58:00" end_time="19:58:00" /></plan></person><person id="102"><plan selected="yes"><act type="h" x="-14441519.896000888" y="3989519.0067093153" end_time="11:34:00" /><leg mode="car" /><act type="h" x="-14445410.48629733" y="3986409.6948223803" start_time="11:34:00" end_time="19:34:00" /></plan></person><person id="103"><plan selected="yes"><act type="h" x="-14441493.764501508" y="3989678.1510856804" end_time="11:55:00" /><leg mode="car" /><act type="h" x="-14445394.000445683" y="3986360.880150347" start_time="11:55:00" end_time="19:55:00" /></plan></person><person id="104"><plan selected="yes"><act type="h" x="-14441494.260250587" y="3989677.5881696055" end_time="11:46:00" /><leg mode="car" /><act type="h" x="-14445491.381569717" y="3986413.700826293" start_time="11:46:00" end_time="19:46:00" /></plan></person><person id="105"><plan selected="yes"><act type="h" x="-14441483.08043127" y="3989674.41338012" end_time="11:19:00" /><leg mode="car" /><act type="h" x="-14445374.396256205" y="3986180.7230724418" start_time="11:19:00" end_time="19:19:00" /></plan></person><person id="106"><plan selected="yes"><act type="h" x="-14441436.222024621" y="3989567.0535875545" end_time="12:40:00" /><leg mode="car" /><act type="h" x="-14445412.92402587" y="3986389.873479978" start_time="12:40:00" end_time="20:40:00" /></plan></person><person id="107"><plan selected="yes"><act type="h" x="-14441585.168484792" y="3989662.9400011203" end_time="12:32:00" /><leg mode="car" /><act type="h" x="-14445421.734197583" y="3986292.6548197623" start_time="12:32:00" end_time="20:32:00" /></plan></person><person id="108"><plan selected="yes"><act type="h" x="-14441494.72495417" y="3989676.4930683062" end_time="20:18:00" /><leg mode="car" /><act type="h" x="-14445446.352508176" y="3986263.4354563244" start_time="20:18:00" end_time="04:18:00" /></plan></person><person id="109"><plan selected="yes"><act type="h" x="-14441491.301726552" y="3989675.802771438" end_time="20:58:00" /><leg mode="car" /><act type="h" x="-14445354.396468982" y="3986310.831687221" start_time="20:58:00" end_time="04:58:00" /></plan></person><person id="110"><plan selected="yes"><act type="h" x="-14441583.329831524" y="3989653.1683079894" end_time="20:17:00" /><leg mode="car" /><act type="h" x="-14445410.48629733" y="3986409.6948223803" start_time="20:17:00" end_time="04:17:00" /></plan></person><person id="111"><plan selected="yes"><act type="h" x="-14441494.72495417" y="3989676.4930683062" end_time="20:46:00" /><leg mode="car" /><act type="h" x="-14445306.934668928" y="3986338.089080492" start_time="20:46:00" end_time="04:46:00" /></plan></person><person id="112"><plan selected="yes"><act type="h" x="-14441585.168484792" y="3989662.9400011203" end_time="20:42:00" /><leg mode="car" /><act type="h" x="-14445372.582327668" y="3986444.9424076746" start_time="20:42:00" end_time="04:42:00" /></plan></person><person id="113"><plan selected="yes"><act type="h" x="-14441491.655449262" y="3989680.054105836" end_time="20:23:00" /><leg mode="car" /><act type="h" x="-14445354.396468982" y="3986310.831687221" start_time="20:23:00" end_time="04:23:00" /></plan></person><person id="114"><plan selected="yes"><act type="h" x="-14441583.329831524" y="3989653.1683079894" end_time="20:19:00" /><leg mode="car" /><act type="h" x="-14445361.278044544" y="3986345.425528317" start_time="20:19:00" end_time="04:19:00" /></plan></person><person id="115"><plan selected="yes"><act type="h" x="-14441490.41183929" y="3989680.4826501943" end_time="20:30:00" /><leg mode="car" /><act type="h" x="-14445447.330553694" y="3986249.3978769663" start_time="20:30:00" end_time="04:30:00" /></plan></person><person id="116"><plan selected="yes"><act type="h" x="-14441485.691833058" y="3989675.6850323444" end_time="20:14:00" /><leg mode="car" /><act type="h" x="-14445432.668020964" y="3986215.5246802326" start_time="20:14:00" end_time="04:14:00" /></plan></person><person id="117"><plan selected="yes"><act type="h" x="-14441484.076482903" y="3989638.9333993094" end_time="20:53:00" /><leg mode="car" /><act type="h" x="-14445432.668020964" y="3986215.5246802326" start_time="20:53:00" end_time="04:53:00" /></plan></person><person id="118"><plan selected="yes"><act type="h" x="-14441494.896151917" y="3989673.9910982214" end_time="20:05:00" /><leg mode="car" /><act type="h" x="-14445440.104374327" y="3986342.9629364763" start_time="20:05:00" end_time="04:05:00" /></plan></person><person id="119"><plan selected="yes"><act type="h" x="-14441388.97113691" y="3989737.4856454986" end_time="13:19:00" /><leg mode="car" /><act type="h" x="-14449107.159315664" y="3988905.3041976052" start_time="13:19:00" end_time="21:19:00" /></plan></person><person id="120"><plan selected="yes"><act type="h" x="-14441388.97113691" y="3989737.4856454986" end_time="00:41:00" /><leg mode="car" /><act type="h" x="-14443136.613516726" y="3989960.810766644" start_time="00:41:00" end_time="08:41:00" /></plan></person><person id="121"><plan selected="yes"><act type="h" x="-14441494.545281835" y="3989677.0375458705" end_time="00:30:00" /><leg mode="car" /><act type="h" x="-14442987.142400855" y="3989962.8567042123" start_time="00:30:00" end_time="08:30:00" /></plan></person><person id="122"><plan selected="yes"><act type="h" x="-14441462.169580815" y="3989587.7901480864" end_time="00:36:00" /><leg mode="car" /><act type="h" x="-14442987.142400855" y="3989962.8567042123" start_time="00:36:00" end_time="08:36:00" /></plan></person><person id="123"><plan selected="yes"><act type="h" x="-14441572.6964205" y="3989621.3036574726" end_time="00:26:00" /><leg mode="car" /><act type="h" x="-14443136.613516726" y="3989960.810766644" start_time="00:26:00" end_time="08:26:00" /></plan></person><person id="124"><plan selected="yes"><act type="h" x="-14441485.795317963" y="3989677.4589831065" end_time="00:13:00" /><leg mode="car" /><act type="h" x="-14443137.353468452" y="3989973.4936732794" start_time="00:13:00" end_time="08:13:00" /></plan></person><person id="125"><plan selected="yes"><act type="h" x="-14441585.168484792" y="3989662.9400011203" end_time="00:52:00" /><leg mode="car" /><act type="h" x="-14443082.658908794" y="3989969.209226768" start_time="00:52:00" end_time="08:52:00" /></plan></person><person id="126"><plan selected="yes"><act type="h" x="-14441494.260250587" y="3989677.5881696055" end_time="00:51:00" /><leg mode="car" /><act type="h" x="-14443061.961401459" y="3989955.1098517487" start_time="00:51:00" end_time="08:51:00" /></plan></person><person id="127"><plan selected="yes"><act type="h" x="-14441477.248939762" y="3989659.623644377" end_time="09:46:00" /><leg mode="car" /><act type="h" x="-14442990.020882444" y="3989950.58560689" start_time="09:46:00" end_time="17:46:00" /></plan></person><person id="128"><plan selected="yes"><act type="h" x="-14441494.260250587" y="3989677.5881696055" end_time="09:25:00" /><leg mode="car" /><act type="h" x="-14443136.613516726" y="3989960.810766644" start_time="09:25:00" end_time="17:25:00" /></plan></person><person id="129"><plan selected="yes"><act type="h" x="-14441491.655449262" y="3989680.054105836" end_time="09:34:00" /><leg mode="car" /><act type="h" x="-14442987.142400855" y="3989962.8567042123" start_time="09:34:00" end_time="17:34:00" /></plan></person><person id="130"><plan selected="yes"><act type="h" x="-14441548.905695569" y="3989563.2391181546" end_time="09:35:00" /><leg mode="car" /><act type="h" x="-14443082.658908794" y="3989969.209226768" start_time="09:35:00" end_time="17:35:00" /></plan></person><person id="131"><plan selected="yes"><act type="h" x="-14441485.795317963" y="3989677.4589831065" end_time="13:03:00" /><leg mode="car" /><act type="h" x="-14442990.020882444" y="3989950.58560689" start_time="13:03:00" end_time="21:03:00" /></plan></person><person id="132"><plan selected="yes"><act type="h" x="-14441404.040920354" y="3989653.303315084" end_time="13:10:00" /><leg mode="car" /><act type="h" x="-14443137.353468452" y="3989973.4936732794" start_time="13:10:00" end_time="21:10:00" /></plan></person><person id="133"><plan selected="yes"><act type="h" x="-14441477.248939762" y="3989659.623644377" end_time="13:58:00" /><leg mode="car" /><act type="h" x="-14442987.142400855" y="3989962.8567042123" start_time="13:58:00" end_time="21:58:00" /></plan></person><person id="134"><plan selected="yes"><act type="h" x="-14441519.896000888" y="3989519.0067093153" end_time="13:02:00" /><leg mode="car" /><act type="h" x="-14443061.961401459" y="3989955.1098517487" start_time="13:02:00" end_time="21:02:00" /></plan></person><person id="135"><plan selected="yes"><act type="h" x="-14441491.403252667" y="3989659.420938182" end_time="14:34:00" /><leg mode="car" /><act type="h" x="-14443061.961401459" y="3989955.1098517487" start_time="14:34:00" end_time="22:34:00" /></plan></person><person id="136"><plan selected="yes"><act type="h" x="-14441436.222024621" y="3989567.0535875545" end_time="16:20:00" /><leg mode="car" /><act type="h" x="-14443082.77218011" y="3989956.6545125055" start_time="16:20:00" end_time="00:20:00" /></plan></person><person id="137"><plan selected="yes"><act type="h" x="-14441403.595118983" y="3989676.4692252316" end_time="16:51:00" /><leg mode="car" /><act type="h" x="-14443137.353468452" y="3989973.4936732794" start_time="16:51:00" end_time="00:51:00" /></plan></person><person id="138"><plan selected="yes"><act type="h" x="-14441491.655449262" y="3989680.054105836" end_time="16:50:00" /><leg mode="car" /><act type="h" x="-14442990.020882444" y="3989950.58560689" start_time="16:50:00" end_time="00:50:00" /></plan></person><person id="139"><plan selected="yes"><act type="h" x="-14441493.780919071" y="3989667.5591954472" end_time="21:26:00" /><leg mode="car" /><act type="h" x="-14446059.735619407" y="3989856.1953369104" start_time="21:26:00" end_time="05:26:00" /></plan></person><person id="140"><plan selected="yes"><act type="h" x="-14441493.780919071" y="3989667.5591954472" end_time="04:58:00" /><leg mode="car" /><act type="h" x="-14445048.890149314" y="3988182.5930265742" start_time="04:58:00" end_time="12:58:00" /></plan></person><person id="141"><plan selected="yes"><act type="h" x="-14441492.868013758" y="3989679.0933765257" end_time="01:02:00" /><leg mode="car" /><act type="h" x="-14445704.54746902" y="3989909.137095342" start_time="01:02:00" end_time="09:02:00" /></plan></person><person id="142"><plan selected="yes"><act type="h" x="-14441403.595118983" y="3989676.4692252316" end_time="01:21:00" /><leg mode="car" /><act type="h" x="-14445611.832690762" y="3989898.261650936" start_time="01:21:00" end_time="09:21:00" /></plan></person><person id="143"><plan selected="yes"><act type="h" x="-14441473.472435523" y="3989649.252982147" end_time="01:08:00" /><leg mode="car" /><act type="h" x="-14445555.80355317" y="3989885.601411654" start_time="01:08:00" end_time="09:08:00" /></plan></person><person id="144"><plan selected="yes"><act type="h" x="-14441448.75642729" y="3989564.453361409" end_time="14:56:00" /><leg mode="car" /><act type="h" x="-14445611.832690762" y="3989898.261650936" start_time="14:56:00" end_time="22:56:00" /></plan></person><person id="145"><plan selected="yes"><act type="h" x="-14441519.896000888" y="3989519.0067093153" end_time="14:11:00" /><leg mode="car" /><act type="h" x="-14445569.037001185" y="3989889.5458210334" start_time="14:11:00" end_time="22:11:00" /></plan></person><person id="146"><plan selected="yes"><act type="h" x="-14441494.794093339" y="3989675.866039299" end_time="14:08:00" /><leg mode="car" /><act type="h" x="-14445611.832690762" y="3989898.261650936" start_time="14:08:00" end_time="22:08:00" /></plan></person><person id="147"><plan selected="yes"><act type="h" x="-14441494.794093339" y="3989675.866039299" end_time="14:18:00" /><leg mode="car" /><act type="h" x="-14445569.037001185" y="3989889.5458210334" start_time="14:18:00" end_time="22:18:00" /></plan></person><person id="148"><plan selected="yes"><act type="h" x="-14441494.896151917" y="3989673.9910982214" end_time="14:41:00" /><leg mode="car" /><act type="h" x="-14445810.705714833" y="3989909.438866595" start_time="14:41:00" end_time="22:41:00" /></plan></person><person id="149"><plan selected="yes"><act type="h" x="-14441607.85173498" y="3989787.1937011424" end_time="21:02:00" /><leg mode="car" /><act type="h" x="-14440494.84670961" y="3988405.997975875" start_time="21:02:00" end_time="05:02:00" /></plan></person><person id="150"><plan selected="yes"><act type="h" x="-14441469.869796675" y="3989603.8060657056" end_time="21:18:00" /><leg mode="car" /><act type="h" x="-14440314.53975987" y="3988332.4805828896" start_time="21:18:00" end_time="05:18:00" /></plan></person><person id="151"><plan selected="yes"><act type="h" x="-14441519.896000888" y="3989519.0067093153" end_time="21:39:00" /><leg mode="car" /><act type="h" x="-14440912.069262246" y="3986524.152148287" start_time="21:39:00" end_time="05:39:00" /></plan></person><person id="152"><plan selected="yes"><act type="h" x="-14441484.00091624" y="3989675.694673954" end_time="21:20:00" /><leg mode="car" /><act type="h" x="-14440929.27513456" y="3986460.280458854" start_time="21:20:00" end_time="05:20:00" /></plan></person><person id="153"><plan selected="yes"><act type="h" x="-14441494.896151917" y="3989673.9910982214" end_time="21:24:00" /><leg mode="car" /><act type="h" x="-14441059.89865601" y="3986503.0618965253" start_time="21:24:00" end_time="05:24:00" /></plan></person><person id="154"><plan selected="yes"><act type="h" x="-14441480.384815108" y="3989668.07366999" end_time="01:55:00" /><leg mode="car" /><act type="h" x="-14444342.405112972" y="3990061.858296994" start_time="01:55:00" end_time="09:55:00" /></plan></person><person id="155"><plan selected="yes"><act type="h" x="-14441484.076482903" y="3989638.9333993094" end_time="01:54:00" /><leg mode="car" /><act type="h" x="-14444342.405112972" y="3990061.858296994" start_time="01:54:00" end_time="09:54:00" /></plan></person><person id="156"><plan selected="yes"><act type="h" x="-14441448.75642729" y="3989564.453361409" end_time="01:20:00" /><leg mode="car" /><act type="h" x="-14444344.312760353" y="3990005.771342049" start_time="01:20:00" end_time="09:20:00" /></plan></person><person id="157"><plan selected="yes"><act type="h" x="-14441403.595118983" y="3989676.4692252316" end_time="01:58:00" /><leg mode="car" /><act type="h" x="-14444381.37948428" y="3990057.626441232" start_time="01:58:00" end_time="09:58:00" /></plan></person><person id="158"><plan selected="yes"><act type="h" x="-14441473.472435523" y="3989649.252982147" end_time="01:44:00" /><leg mode="car" /><act type="h" x="-14444342.797160508" y="3989994.2908125557" start_time="01:44:00" end_time="09:44:00" /></plan></person><person id="159"><plan selected="yes"><act type="h" x="-14441493.764501508" y="3989678.1510856804" end_time="01:38:00" /><leg mode="car" /><act type="h" x="-14444420.129054312" y="3990011.492723724" start_time="01:38:00" end_time="09:38:00" /></plan></person><person id="160"><plan selected="yes"><act type="h" x="-14441532.414993705" y="3989536.0767227067" end_time="02:27:00" /><leg mode="car" /><act type="h" x="-14444497.073663162" y="3990011.185788961" start_time="02:27:00" end_time="10:27:00" /></plan></person><person id="161"><plan selected="yes"><act type="h" x="-14441572.6964205" y="3989621.3036574726" end_time="02:44:00" /><leg mode="car" /><act type="h" x="-14444342.797160508" y="3989994.2908125557" start_time="02:44:00" end_time="10:44:00" /></plan></person><person id="162"><plan selected="yes"><act type="h" x="-14441494.72495417" y="3989676.4930683062" end_time="02:55:00" /><leg mode="car" /><act type="h" x="-14444420.129054312" y="3990011.492723724" start_time="02:55:00" end_time="10:55:00" /></plan></person><person id="163"><plan selected="yes"><act type="h" x="-14441404.040920354" y="3989653.303315084" end_time="02:30:00" /><leg mode="car" /><act type="h" x="-14444295.735799903" y="3990070.0987639837" start_time="02:30:00" end_time="10:30:00" /></plan></person><person id="164"><plan selected="yes"><act type="h" x="-14441494.794093339" y="3989675.866039299" end_time="02:33:00" /><leg mode="car" /><act type="h" x="-14444342.797160508" y="3989994.2908125557" start_time="02:33:00" end_time="10:33:00" /></plan></person><person id="165"><plan selected="yes"><act type="h" x="-14441494.896151917" y="3989673.9910982214" end_time="02:21:00" /><leg mode="car" /><act type="h" x="-14444497.073663162" y="3990011.185788961" start_time="02:21:00" end_time="10:21:00" /></plan></person><person id="166"><plan selected="yes"><act type="h" x="-14441494.545281835" y="3989677.0375458705" end_time="02:49:00" /><leg mode="car" /><act type="h" x="-14444442.828380302" y="3989934.8807543064" start_time="02:49:00" end_time="10:49:00" /></plan></person><person id="167"><plan selected="yes"><act type="h" x="-14441477.248939762" y="3989659.623644377" end_time="02:00:00" /><leg mode="car" /><act type="h" x="-14444344.312760353" y="3990005.771342049" start_time="02:00:00" end_time="10:00:00" /></plan></person><person id="168"><plan selected="yes"><act type="h" x="-14441494.545281835" y="3989677.0375458705" end_time="03:52:00" /><leg mode="car" /><act type="h" x="-14444342.797160508" y="3989994.2908125557" start_time="03:52:00" end_time="11:52:00" /></plan></person><person id="169"><plan selected="yes"><act type="h" x="-14441448.75642729" y="3989564.453361409" end_time="03:11:00" /><leg mode="car" /><act type="h" x="-14444458.578071773" y="3990010.9401556063" start_time="03:11:00" end_time="11:11:00" /></plan></person><person id="170"><plan selected="yes"><act type="h" x="-14441491.301726552" y="3989675.802771438" end_time="03:13:00" /><leg mode="car" /><act type="h" x="-14444423.554162094" y="3990055.699599438" start_time="03:13:00" end_time="11:13:00" /></plan></person><person id="171"><plan selected="yes"><act type="h" x="-14441491.301726552" y="3989675.802771438" end_time="03:31:00" /><leg mode="car" /><act type="h" x="-14444458.578071773" y="3990010.9401556063" start_time="03:31:00" end_time="11:31:00" /></plan></person><person id="172"><plan selected="yes"><act type="h" x="-14441532.414993705" y="3989536.0767227067" end_time="03:24:00" /><leg mode="car" /><act type="h" x="-14444344.312760353" y="3990005.771342049" start_time="03:24:00" end_time="11:24:00" /></plan></person><person id="173"><plan selected="yes"><act type="h" x="-14441491.301726552" y="3989675.802771438" end_time="03:19:00" /><leg mode="car" /><act type="h" x="-14444458.578071773" y="3990010.9401556063" start_time="03:19:00" end_time="11:19:00" /></plan></person><person id="174"><plan selected="yes"><act type="h" x="-14441450.469127966" y="3989593.812745263" end_time="04:37:00" /><leg mode="car" /><act type="h" x="-14444458.578071773" y="3990010.9401556063" start_time="04:37:00" end_time="12:37:00" /></plan></person><person id="175"><plan selected="yes"><act type="h" x="-14441480.384815108" y="3989668.07366999" end_time="04:44:00" /><leg mode="car" /><act type="h" x="-14444344.312760353" y="3990005.771342049" start_time="04:44:00" end_time="12:44:00" /></plan></person><person id="176"><plan selected="yes"><act type="h" x="-14441494.896151917" y="3989673.9910982214" end_time="04:27:00" /><leg mode="car" /><act type="h" x="-14444497.073663162" y="3990011.185788961" start_time="04:27:00" end_time="12:27:00" /></plan></person><person id="177"><plan selected="yes"><act type="h" x="-14441436.222024621" y="3989567.0535875545" end_time="05:10:00" /><leg mode="car" /><act type="h" x="-14444442.828380302" y="3989934.8807543064" start_time="05:10:00" end_time="13:10:00" /></plan></person><person id="178"><plan selected="yes"><act type="h" x="-14441436.222024621" y="3989567.0535875545" end_time="05:37:00" /><leg mode="car" /><act type="h" x="-14444381.37948428" y="3990057.626441232" start_time="05:37:00" end_time="13:37:00" /></plan></person><person id="179"><plan selected="yes"><act type="h" x="-14441404.040920354" y="3989653.303315084" end_time="05:36:00" /><leg mode="car" /><act type="h" x="-14444295.735799903" y="3990070.0987639837" start_time="05:36:00" end_time="13:36:00" /></plan></person><person id="180"><plan selected="yes"><act type="h" x="-14441403.205905888" y="3989620.867006699" end_time="05:55:00" /><leg mode="car" /><act type="h" x="-14444442.828380302" y="3989934.8807543064" start_time="05:55:00" end_time="13:55:00" /></plan></person><person id="181"><plan selected="yes"><act type="h" x="-14441491.655449262" y="3989680.054105836" end_time="05:55:00" /><leg mode="car" /><act type="h" x="-14444344.312760353" y="3990005.771342049" start_time="05:55:00" end_time="13:55:00" /></plan></person><person id="182"><plan selected="yes"><act type="h" x="-14441548.905695569" y="3989563.2391181546" end_time="08:12:00" /><leg mode="car" /><act type="h" x="-14444420.129054312" y="3990011.492723724" start_time="08:12:00" end_time="16:12:00" /></plan></person><person id="183"><plan selected="yes"><act type="h" x="-14441477.248939762" y="3989659.623644377" end_time="08:52:00" /><leg mode="car" /><act type="h" x="-14444442.828380302" y="3989934.8807543064" start_time="08:52:00" end_time="16:52:00" /></plan></person><person id="184"><plan selected="yes"><act type="h" x="-14441436.222024621" y="3989567.0535875545" end_time="08:40:00" /><leg mode="car" /><act type="h" x="-14444442.828380302" y="3989934.8807543064" start_time="08:40:00" end_time="16:40:00" /></plan></person><person id="185"><plan selected="yes"><act type="h" x="-14441488.34792903" y="3989679.535058204" end_time="10:50:00" /><leg mode="car" /><act type="h" x="-14444423.554162094" y="3990055.699599438" start_time="10:50:00" end_time="18:50:00" /></plan></person><person id="186"><plan selected="yes"><act type="h" x="-14441548.905695569" y="3989563.2391181546" end_time="10:49:00" /><leg mode="car" /><act type="h" x="-14444442.828380302" y="3989934.8807543064" start_time="10:49:00" end_time="18:49:00" /></plan></person><person id="187"><plan selected="yes"><act type="h" x="-14441583.329831524" y="3989653.1683079894" end_time="10:29:00" /><leg mode="car" /><act type="h" x="-14444442.828380302" y="3989934.8807543064" start_time="10:29:00" end_time="18:29:00" /></plan></person><person id="188"><plan selected="yes"><act type="h" x="-14441480.384815108" y="3989668.07366999" end_time="12:18:00" /><leg mode="car" /><act type="h" x="-14444344.312760353" y="3990005.771342049" start_time="12:18:00" end_time="20:18:00" /></plan></person><person id="189"><plan selected="yes"><act type="h" x="-14441560.865961306" y="3989590.6656661364" end_time="12:15:00" /><leg mode="car" /><act type="h" x="-14444423.554162094" y="3990055.699599438" start_time="12:15:00" end_time="20:15:00" /></plan></person><person id="190"><plan selected="yes"><act type="h" x="-14441450.469127966" y="3989593.812745263" end_time="13:05:00" /><leg mode="car" /><act type="h" x="-14444342.797160508" y="3989994.2908125557" start_time="13:05:00" end_time="21:05:00" /></plan></person><person id="191"><plan selected="yes"><act type="h" x="-14441494.545281835" y="3989677.0375458705" end_time="13:55:00" /><leg mode="car" /><act type="h" x="-14444344.312760353" y="3990005.771342049" start_time="13:55:00" end_time="21:55:00" /></plan></person><person id="192"><plan selected="yes"><act type="h" x="-14441494.260250587" y="3989677.5881696055" end_time="13:08:00" /><leg mode="car" /><act type="h" x="-14444342.405112972" y="3990061.858296994" start_time="13:08:00" end_time="21:08:00" /></plan></person><person id="193"><plan selected="yes"><act type="h" x="-14441491.655449262" y="3989680.054105836" end_time="13:30:00" /><leg mode="car" /><act type="h" x="-14444295.735799903" y="3990070.0987639837" start_time="13:30:00" end_time="21:30:00" /></plan></person><person id="194"><plan selected="yes"><act type="h" x="-14441404.040920354" y="3989653.303315084" end_time="13:18:00" /><leg mode="car" /><act type="h" x="-14444344.312760353" y="3990005.771342049" start_time="13:18:00" end_time="21:18:00" /></plan></person><person id="195"><plan selected="yes"><act type="h" x="-14441572.6964205" y="3989621.3036574726" end_time="13:34:00" /><leg mode="car" /><act type="h" x="-14444497.073663162" y="3990011.185788961" start_time="13:34:00" end_time="21:34:00" /></plan></person><person id="196"><plan selected="yes"><act type="h" x="-14441494.545281835" y="3989677.0375458705" end_time="13:29:00" /><leg mode="car" /><act type="h" x="-14444344.312760353" y="3990005.771342049" start_time="13:29:00" end_time="21:29:00" /></plan></person><person id="197"><plan selected="yes"><act type="h" x="-14441494.794093339" y="3989675.866039299" end_time="14:18:00" /><leg mode="car" /><act type="h" x="-14444497.073663162" y="3990011.185788961" start_time="14:18:00" end_time="22:18:00" /></plan></person><person id="198"><plan selected="yes"><act type="h" x="-14441404.040920354" y="3989653.303315084" end_time="14:24:00" /><leg mode="car" /><act type="h" x="-14444342.797160508" y="3989994.2908125557" start_time="14:24:00" end_time="22:24:00" /></plan></person><person id="199"><plan selected="yes"><act type="h" x="-14441488.34792903" y="3989679.535058204" end_time="16:54:00" /><leg mode="car" /><act type="h" x="-14444295.735799903" y="3990070.0987639837" start_time="16:54:00" end_time="00:54:00" /></plan></person><person id="200"><plan selected="yes"><act type="h" x="-14441404.040920354" y="3989653.303315084" end_time="16:08:00" /><leg mode="car" /><act type="h" x="-14444442.828380302" y="3989934.8807543064" start_time="16:08:00" end_time="00:08:00" /></plan></person><person id="201"><plan selected="yes"><act type="h" x="-14441494.260250587" y="3989677.5881696055" end_time="17:48:00" /><leg mode="car" /><act type="h" x="-14444423.554162094" y="3990055.699599438" start_time="17:48:00" end_time="01:48:00" /></plan></person><person id="202"><plan selected="yes"><act type="h" x="-14441492.868013758" y="3989679.0933765257" end_time="17:42:00" /><leg mode="car" /><act type="h" x="-14444458.578071773" y="3990010.9401556063" start_time="17:42:00" end_time="01:42:00" /></plan></person><person id="203"><plan selected="yes"><act type="h" x="-14441491.655449262" y="3989680.054105836" end_time="17:19:00" /><leg mode="car" /><act type="h" x="-14444344.312760353" y="3990005.771342049" start_time="17:19:00" end_time="01:19:00" /></plan></person><person id="204"><plan selected="yes"><act type="h" x="-14441494.896151917" y="3989673.9910982214" end_time="17:38:00" /><leg mode="car" /><act type="h" x="-14444342.797160508" y="3989994.2908125557" start_time="17:38:00" end_time="01:38:00" /></plan></person><person id="205"><plan selected="yes"><act type="h" x="-14441548.905695569" y="3989563.2391181546" end_time="17:34:00" /><leg mode="car" /><act type="h" x="-14444420.129054312" y="3990011.492723724" start_time="17:34:00" end_time="01:34:00" /></plan></person><person id="206"><plan selected="yes"><act type="h" x="-14441450.469127966" y="3989593.812745263" end_time="17:46:00" /><leg mode="car" /><act type="h" x="-14444295.735799903" y="3990070.0987639837" start_time="17:46:00" end_time="01:46:00" /></plan></person><person id="207"><plan selected="yes"><act type="h" x="-14441491.301726552" y="3989675.802771438" end_time="17:46:00" /><leg mode="car" /><act type="h" x="-14444342.405112972" y="3990061.858296994" start_time="17:46:00" end_time="01:46:00" /></plan></person><person id="208"><plan selected="yes"><act type="h" x="-14441484.076482903" y="3989638.9333993094" end_time="18:49:00" /><leg mode="car" /><act type="h" x="-14444342.797160508" y="3989994.2908125557" start_time="18:49:00" end_time="02:49:00" /></plan></person><person id="209"><plan selected="yes"><act type="h" x="-14441532.414993705" y="3989536.0767227067" end_time="18:20:00" /><leg mode="car" /><act type="h" x="-14444442.828380302" y="3989934.8807543064" start_time="18:20:00" end_time="02:20:00" /></plan></person><person id="210"><plan selected="yes"><act type="h" x="-14441403.595118983" y="3989676.4692252316" end_time="18:36:00" /><leg mode="car" /><act type="h" x="-14444442.828380302" y="3989934.8807543064" start_time="18:36:00" end_time="02:36:00" /></plan></person><person id="211"><plan selected="yes"><act type="h" x="-14441488.34792903" y="3989679.535058204" end_time="18:05:00" /><leg mode="car" /><act type="h" x="-14444458.578071773" y="3990010.9401556063" start_time="18:05:00" end_time="02:05:00" /></plan></person><person id="212"><plan selected="yes"><act type="h" x="-14441532.414993705" y="3989536.0767227067" end_time="18:21:00" /><leg mode="car" /><act type="h" x="-14444344.312760353" y="3990005.771342049" start_time="18:21:00" end_time="02:21:00" /></plan></person><person id="213"><plan selected="yes"><act type="h" x="-14441492.868013758" y="3989679.0933765257" end_time="18:11:00" /><leg mode="car" /><act type="h" x="-14444442.828380302" y="3989934.8807543064" start_time="18:11:00" end_time="02:11:00" /></plan></person><person id="214"><plan selected="yes"><act type="h" x="-14441494.72495417" y="3989676.4930683062" end_time="18:16:00" /><leg mode="car" /><act type="h" x="-14444344.312760353" y="3990005.771342049" start_time="18:16:00" end_time="02:16:00" /></plan></person><person id="215"><plan selected="yes"><act type="h" x="-14441560.865961306" y="3989590.6656661364" end_time="18:42:00" /><leg mode="car" /><act type="h" x="-14444497.073663162" y="3990011.185788961" start_time="18:42:00" end_time="02:42:00" /></plan></person><person id="216"><plan selected="yes"><act type="h" x="-14441480.384815108" y="3989668.07366999" end_time="18:50:00" /><leg mode="car" /><act type="h" x="-14444423.554162094" y="3990055.699599438" start_time="18:50:00" end_time="02:50:00" /></plan></person><person id="217"><plan selected="yes"><act type="h" x="-14441483.08043127" y="3989674.41338012" end_time="18:24:00" /><leg mode="car" /><act type="h" x="-14444420.129054312" y="3990011.492723724" start_time="18:24:00" end_time="02:24:00" /></plan></person><person id="218"><plan selected="yes"><act type="h" x="-14441483.08043127" y="3989674.41338012" end_time="18:56:00" /><leg mode="car" /><act type="h" x="-14444381.37948428" y="3990057.626441232" start_time="18:56:00" end_time="02:56:00" /></plan></person><person id="219"><plan selected="yes"><act type="h" x="-14441480.384815108" y="3989668.07366999" end_time="19:49:00" /><leg mode="car" /><act type="h" x="-14444442.828380302" y="3989934.8807543064" start_time="19:49:00" end_time="03:49:00" /></plan></person><person id="220"><plan selected="yes"><act type="h" x="-14441491.655449262" y="3989680.054105836" end_time="19:31:00" /><leg mode="car" /><act type="h" x="-14444442.828380302" y="3989934.8807543064" start_time="19:31:00" end_time="03:31:00" /></plan></person><person id="221"><plan selected="yes"><act type="h" x="-14441493.780919071" y="3989667.5591954472" end_time="19:38:00" /><leg mode="car" /><act type="h" x="-14444342.405112972" y="3990061.858296994" start_time="19:38:00" end_time="03:38:00" /></plan></person><person id="222"><plan selected="yes"><act type="h" x="-14441494.896151917" y="3989673.9910982214" end_time="22:55:00" /><leg mode="car" /><act type="h" x="-14444342.405112972" y="3990061.858296994" start_time="22:55:00" end_time="06:55:00" /></plan></person><person id="223"><plan selected="yes"><act type="h" x="-14441494.896151917" y="3989673.9910982214" end_time="22:17:00" /><leg mode="car" /><act type="h" x="-14444342.797160508" y="3989994.2908125557" start_time="22:17:00" end_time="06:17:00" /></plan></person><person id="224"><plan selected="yes"><act type="h" x="-14441404.040920354" y="3989653.303315084" end_time="23:25:00" /><leg mode="car" /><act type="h" x="-14444295.735799903" y="3990070.0987639837" start_time="23:25:00" end_time="07:25:00" /></plan></person><person id="225"><plan selected="yes"><act type="h" x="-14441480.384815108" y="3989668.07366999" end_time="23:21:00" /><leg mode="car" /><act type="h" x="-14444497.073663162" y="3990011.185788961" start_time="23:21:00" end_time="07:21:00" /></plan></person><person id="226"><plan selected="yes"><act type="h" x="-14441436.222024621" y="3989567.0535875545" end_time="23:02:00" /><leg mode="car" /><act type="h" x="-14444295.735799903" y="3990070.0987639837" start_time="23:02:00" end_time="07:02:00" /></plan></person><person id="227"><plan selected="yes"><act type="h" x="-14441607.85173498" y="3989787.1937011424" end_time="23:52:00" /><leg mode="car" /><act type="h" x="-14444381.37948428" y="3990057.626441232" start_time="23:52:00" end_time="07:52:00" /></plan></person><person id="228"><plan selected="yes"><act type="h" x="-14441493.780919071" y="3989667.5591954472" end_time="11:47:00" /><leg mode="car" /><act type="h" x="-14447506.799893718" y="3989684.0902107507" start_time="11:47:00" end_time="19:47:00" /></plan></person><person id="229"><plan selected="yes"><act type="h" x="-14441492.868013758" y="3989679.0933765257" end_time="11:45:00" /><leg mode="car" /><act type="h" x="-14447634.496565208" y="3989705.649773882" start_time="11:45:00" end_time="19:45:00" /></plan></person><person id="230"><plan selected="yes"><act type="h" x="-14441483.08043127" y="3989674.41338012" end_time="11:46:00" /><leg mode="car" /><act type="h" x="-14447634.496565208" y="3989705.649773882" start_time="11:46:00" end_time="19:46:00" /></plan></person><person id="231"><plan selected="yes"><act type="h" x="-14441491.655449262" y="3989680.054105836" end_time="18:35:00" /><leg mode="car" /><act type="h" x="-14447433.567944523" y="3989670.120216741" start_time="18:35:00" end_time="02:35:00" /></plan></person><person id="232"><plan selected="yes"><act type="h" x="-14441492.868013758" y="3989679.0933765257" end_time="08:55:00" /><leg mode="car" /><act type="h" x="-14440376.223902913" y="3986747.5714333337" start_time="08:55:00" end_time="16:55:00" /></plan></person><person id="233"><plan selected="yes"><act type="h" x="-14441488.34792903" y="3989679.535058204" end_time="08:14:00" /><leg mode="car" /><act type="h" x="-14440425.5653243" y="3986660.1001156885" start_time="08:14:00" end_time="16:14:00" /></plan></person><person id="234"><plan selected="yes"><act type="h" x="-14441494.72495417" y="3989676.4930683062" end_time="08:23:00" /><leg mode="car" /><act type="h" x="-14440404.326652795" y="3986685.648532425" start_time="08:23:00" end_time="16:23:00" /></plan></person><person id="235"><plan selected="yes"><act type="h" x="-14441436.222024621" y="3989567.0535875545" end_time="08:33:00" /><leg mode="car" /><act type="h" x="-14440404.326652795" y="3986685.648532425" start_time="08:33:00" end_time="16:33:00" /></plan></person><person id="236"><plan selected="yes"><act type="h" x="-14441490.41183929" y="3989680.4826501943" end_time="08:12:00" /><leg mode="car" /><act type="h" x="-14440371.792792287" y="3986764.0360319396" start_time="08:12:00" end_time="16:12:00" /></plan></person><person id="237"><plan selected="yes"><act type="h" x="-14441490.41183929" y="3989680.4826501943" end_time="08:43:00" /><leg mode="car" /><act type="h" x="-14440376.223902913" y="3986747.5714333337" start_time="08:43:00" end_time="16:43:00" /></plan></person><person id="238"><plan selected="yes"><act type="h" x="-14449362.386532128" y="3987339.0317698084" end_time="19:09:00" /><leg mode="car" /><act type="h" x="-14445383.163120976" y="3986341.8332725717" start_time="19:09:00" end_time="03:09:00" /></plan></person><person id="239"><plan selected="yes"><act type="h" x="-14449362.386532128" y="3987339.0317698084" end_time="19:32:00" /><leg mode="car" /><act type="h" x="-14445440.104374327" y="3986342.9629364763" start_time="19:32:00" end_time="03:32:00" /></plan></person><person id="240"><plan selected="yes"><act type="h" x="-14449278.704727575" y="3987055.4582168823" end_time="19:32:00" /><leg mode="car" /><act type="h" x="-14445396.889424838" y="3986426.6944969073" start_time="19:32:00" end_time="03:32:00" /></plan></person><person id="241"><plan selected="yes"><act type="h" x="-14449362.386532128" y="3987339.0317698084" end_time="19:18:00" /><leg mode="car" /><act type="h" x="-14445361.278044544" y="3986345.425528317" start_time="19:18:00" end_time="03:18:00" /></plan></person><person id="242"><plan selected="yes"><act type="h" x="-14449375.040063221" y="3987275.0829639058" end_time="04:46:00" /><leg mode="car" /><act type="h" x="-14445978.168187631" y="3989717.4971406716" start_time="04:46:00" end_time="12:46:00" /></plan></person><person id="243"><plan selected="yes"><act type="h" x="-14449326.734718181" y="3987208.1923478385" end_time="04:41:00" /><leg mode="car" /><act type="h" x="-14446105.786741389" y="3989844.6087756366" start_time="04:41:00" end_time="12:41:00" /></plan></person><person id="244"><plan selected="yes"><act type="h" x="-14449335.103947174" y="3987230.2284098133" end_time="15:42:00" /><leg mode="car" /><act type="h" x="-14445939.254810164" y="3989891.258511583" start_time="15:42:00" end_time="23:42:00" /></plan></person><person id="245"><plan selected="yes"><act type="h" x="-14449358.172890168" y="3987317.5548330327" end_time="09:19:00" /><leg mode="car" /><act type="h" x="-14445039.519661259" y="3986460.281083582" start_time="09:19:00" end_time="17:19:00" /></plan></person><person id="246"><plan selected="yes"><act type="h" x="-14449278.704727575" y="3987055.4582168823" end_time="09:50:00" /><leg mode="car" /><act type="h" x="-14445231.04312946" y="3986570.2055028253" start_time="09:50:00" end_time="17:50:00" /></plan></person><person id="247"><plan selected="yes"><act type="h" x="-14449380.789089754" y="3987299.3193525127" end_time="03:01:00" /><leg mode="car" /><act type="h" x="-14440425.5653243" y="3986660.1001156885" start_time="03:01:00" end_time="11:01:00" /></plan></person><person id="248"><plan selected="yes"><act type="h" x="-14449344.18283735" y="3987258.9891912015" end_time="03:15:00" /><leg mode="car" /><act type="h" x="-14440372.392352926" y="3986790.6253061565" start_time="03:15:00" end_time="11:15:00" /></plan></person><person id="249"><plan selected="yes"><act type="h" x="-14449367.57941128" y="3987250.5012301784" end_time="03:57:00" /><leg mode="car" /><act type="h" x="-14440372.392352926" y="3986790.6253061565" start_time="03:57:00" end_time="11:57:00" /></plan></person><person id="250"><plan selected="yes"><act type="h" x="-14449385.20827424" y="3987320.6953261187" end_time="03:54:00" /><leg mode="car" /><act type="h" x="-14440376.223902913" y="3986747.5714333337" start_time="03:54:00" end_time="11:54:00" /></plan></person><person id="251"><plan selected="yes"><act type="h" x="-14449278.704727575" y="3987055.4582168823" end_time="03:48:00" /><leg mode="car" /><act type="h" x="-14440389.349136667" y="3986707.982169938" start_time="03:48:00" end_time="11:48:00" /></plan></person><person id="252"><plan selected="yes"><act type="h" x="-14449362.386532128" y="3987339.0317698084" end_time="03:09:00" /><leg mode="car" /><act type="h" x="-14440389.349136667" y="3986707.982169938" start_time="03:09:00" end_time="11:09:00" /></plan></person><person id="253"><plan selected="yes"><act type="h" x="-14449362.386532128" y="3987339.0317698084" end_time="03:18:00" /><leg mode="car" /><act type="h" x="-14440371.792792287" y="3986764.0360319396" start_time="03:18:00" end_time="11:18:00" /></plan></person><person id="254"><plan selected="yes"><act type="h" x="-14449362.386532128" y="3987339.0317698084" end_time="03:32:00" /><leg mode="car" /><act type="h" x="-14440448.828015087" y="3986638.4406173676" start_time="03:32:00" end_time="11:32:00" /></plan></person><person id="255"><plan selected="yes"><act type="h" x="-14449362.386532128" y="3987339.0317698084" end_time="09:39:00" /><leg mode="car" /><act type="h" x="-14440371.792792287" y="3986764.0360319396" start_time="09:39:00" end_time="17:39:00" /></plan></person><person id="256"><plan selected="yes"><act type="h" x="-14449348.979306584" y="3987198.0799915334" end_time="09:22:00" /><leg mode="car" /><act type="h" x="-14440404.326652795" y="3986685.648532425" start_time="09:22:00" end_time="17:22:00" /></plan></person><person id="257"><plan selected="yes"><act type="h" x="-14449380.789089754" y="3987299.3193525127" end_time="09:38:00" /><leg mode="car" /><act type="h" x="-14440372.392352926" y="3986790.6253061565" start_time="09:38:00" end_time="17:38:00" /></plan></person><person id="258"><plan selected="yes"><act type="h" x="-14449326.734718181" y="3987208.1923478385" end_time="09:11:00" /><leg mode="car" /><act type="h" x="-14440371.792792287" y="3986764.0360319396" start_time="09:11:00" end_time="17:11:00" /></plan></person><person id="259"><plan selected="yes"><act type="h" x="-14449344.18283735" y="3987258.9891912015" end_time="09:58:00" /><leg mode="car" /><act type="h" x="-14440425.5653243" y="3986660.1001156885" start_time="09:58:00" end_time="17:58:00" /></plan></person><person id="260"><plan selected="yes"><act type="h" x="-14449278.704727575" y="3987055.4582168823" end_time="09:25:00" /><leg mode="car" /><act type="h" x="-14440404.326652795" y="3986685.648532425" start_time="09:25:00" end_time="17:25:00" /></plan></person><person id="261"><plan selected="yes"><act type="h" x="-14449335.103947174" y="3987230.2284098133" end_time="09:00:00" /><leg mode="car" /><act type="h" x="-14440404.326652795" y="3986685.648532425" start_time="09:00:00" end_time="17:00:00" /></plan></person><person id="262"><plan selected="yes"><act type="h" x="-14449278.704727575" y="3987055.4582168823" end_time="09:18:00" /><leg mode="car" /><act type="h" x="-14440425.5653243" y="3986660.1001156885" start_time="09:18:00" end_time="17:18:00" /></plan></person><person id="263"><plan selected="yes"><act type="h" x="-14449367.57941128" y="3987250.5012301784" end_time="13:42:00" /><leg mode="car" /><act type="h" x="-14440425.5653243" y="3986660.1001156885" start_time="13:42:00" end_time="21:42:00" /></plan></person><person id="264"><plan selected="yes"><act type="h" x="-14449385.20827424" y="3987320.6953261187" end_time="13:23:00" /><leg mode="car" /><act type="h" x="-14440381.432402438" y="3986728.1229574294" start_time="13:23:00" end_time="21:23:00" /></plan></person><person id="265"><plan selected="yes"><act type="h" x="-14449335.103947174" y="3987230.2284098133" end_time="13:51:00" /><leg mode="car" /><act type="h" x="-14440376.223902913" y="3986747.5714333337" start_time="13:51:00" end_time="21:51:00" /></plan></person><person id="266"><plan selected="yes"><act type="h" x="-14449305.127453156" y="3987160.397762684" end_time="16:24:00" /><leg mode="car" /><act type="h" x="-14440425.5653243" y="3986660.1001156885" start_time="16:24:00" end_time="00:24:00" /></plan></person><person id="267"><plan selected="yes"><act type="h" x="-14445322.651195379" y="3986308.498879596" end_time="00:32:00" /><leg mode="car" /><act type="h" x="-14440318.909199625" y="3987894.4942049338" start_time="00:32:00" end_time="08:32:00" /></plan></person><person id="268"><plan selected="yes"><act type="h" x="-14445410.48629733" y="3986409.6948223803" end_time="00:00:00" /><leg mode="car" /><act type="h" x="-14440404.236605644" y="3987769.6847796636" start_time="00:00:00" end_time="08:00:00" /></plan></person><person id="269"><plan selected="yes"><act type="h" x="-14445383.163120976" y="3986341.8332725717" end_time="00:57:00" /><leg mode="car" /><act type="h" x="-14440318.909199625" y="3987894.4942049338" start_time="00:57:00" end_time="08:57:00" /></plan></person><person id="270"><plan selected="yes"><act type="h" x="-14445412.92402587" y="3986389.873479978" end_time="00:24:00" /><leg mode="car" /><act type="h" x="-14440322.602535991" y="3987756.6407640115" start_time="00:24:00" end_time="08:24:00" /></plan></person><person id="271"><plan selected="yes"><act type="h" x="-14445306.934668928" y="3986338.089080492" end_time="00:30:00" /><leg mode="car" /><act type="h" x="-14440389.97936648" y="3987655.756623293" start_time="00:30:00" end_time="08:30:00" /></plan></person><person id="272"><plan selected="yes"><act type="h" x="-14445438.234258486" y="3986280.1158392136" end_time="16:55:00" /><leg mode="car" /><act type="h" x="-14443843.253545204" y="3986321.0889831805" start_time="16:55:00" end_time="00:55:00" /></plan></person><person id="273"><plan selected="yes"><act type="h" x="-14445383.163120976" y="3986341.8332725717" end_time="16:37:00" /><leg mode="car" /><act type="h" x="-14443841.97828461" y="3986248.4995890274" start_time="16:37:00" end_time="00:37:00" /></plan></person><person id="274"><plan selected="yes"><act type="h" x="-14445446.352508176" y="3986263.4354563244" end_time="02:24:00" /><leg mode="car" /><act type="h" x="-14442562.656360755" y="3989962.3473595525" start_time="02:24:00" end_time="10:24:00" /></plan></person><person id="275"><plan selected="yes"><act type="h" x="-14445374.396256205" y="3986180.7230724418" end_time="02:52:00" /><leg mode="car" /><act type="h" x="-14442345.513263492" y="3989973.2355362596" start_time="02:52:00" end_time="10:52:00" /></plan></person><person id="276"><plan selected="yes"><act type="h" x="-14445306.934668928" y="3986338.089080492" end_time="06:02:00" /><leg mode="car" /><act type="h" x="-14440219.178858703" y="3986663.2344097616" start_time="06:02:00" end_time="14:02:00" /></plan></person><person id="277"><plan selected="yes"><act type="h" x="-14445361.278044544" y="3986345.425528317" end_time="20:52:00" /><leg mode="car" /><act type="h" x="-14440210.48199337" y="3986704.4356679674" start_time="20:52:00" end_time="04:52:00" /></plan></person><person id="278"><plan selected="yes"><act type="h" x="-14445396.889424838" y="3986426.6944969073" end_time="00:16:00" /><leg mode="car" /><act type="h" x="-14445426.26802264" y="3989377.7807487366" start_time="00:16:00" end_time="08:16:00" /></plan></person><person id="279"><plan selected="yes"><act type="h" x="-14445396.889424838" y="3986426.6944969073" end_time="00:23:00" /><leg mode="car" /><act type="h" x="-14445446.390249891" y="3989474.4173256303" start_time="00:23:00" end_time="08:23:00" /></plan></person><person id="280"><plan selected="yes"><act type="h" x="-14445402.360198664" y="3986303.046252141" end_time="00:23:00" /><leg mode="car" /><act type="h" x="-14445436.375858733" y="3989398.8180221776" start_time="00:23:00" end_time="08:23:00" /></plan></person><person id="281"><plan selected="yes"><act type="h" x="-14445408.497788457" y="3986375.617273995" end_time="02:35:00" /><leg mode="car" /><act type="h" x="-14445442.21942783" y="3989417.4340472966" start_time="02:35:00" end_time="10:35:00" /></plan></person><person id="282"><plan selected="yes"><act type="h" x="-14445486.283629065" y="3986344.4534373907" end_time="02:30:00" /><leg mode="car" /><act type="h" x="-14445495.40019796" y="3989459.186619905" start_time="02:30:00" end_time="10:30:00" /></plan></person><person id="283"><plan selected="yes"><act type="h" x="-14445440.104374327" y="3986342.9629364763" end_time="02:07:00" /><leg mode="car" /><act type="h" x="-14445426.26802264" y="3989377.7807487366" start_time="02:07:00" end_time="10:07:00" /></plan></person><person id="284"><plan selected="yes"><act type="h" x="-14445402.360198664" y="3986303.046252141" end_time="02:05:00" /><leg mode="car" /><act type="h" x="-14445439.229960933" y="3989516.575537135" start_time="02:05:00" end_time="10:05:00" /></plan></person><person id="285"><plan selected="yes"><act type="h" x="-14445414.484936064" y="3986199.2212360147" end_time="02:29:00" /><leg mode="car" /><act type="h" x="-14445413.842290387" y="3989356.878648622" start_time="02:29:00" end_time="10:29:00" /></plan></person><person id="286"><plan selected="yes"><act type="h" x="-14445322.651195379" y="3986308.498879596" end_time="04:39:00" /><leg mode="car" /><act type="h" x="-14445446.390249891" y="3989474.4173256303" start_time="04:39:00" end_time="12:39:00" /></plan></person><person id="287"><plan selected="yes"><act type="h" x="-14445361.278044544" y="3986345.425528317" end_time="04:25:00" /><leg mode="car" /><act type="h" x="-14445444.314812617" y="3989438.8497128016" start_time="04:25:00" end_time="12:25:00" /></plan></person><person id="288"><plan selected="yes"><act type="h" x="-14445421.734197583" y="3986292.6548197623" end_time="04:19:00" /><leg mode="car" /><act type="h" x="-14445426.26802264" y="3989377.7807487366" start_time="04:19:00" end_time="12:19:00" /></plan></person><person id="289"><plan selected="yes"><act type="h" x="-14445382.71691668" y="3986308.822935118" end_time="04:58:00" /><leg mode="car" /><act type="h" x="-14445414.042198643" y="3989570.4651077185" start_time="04:58:00" end_time="12:58:00" /></plan></person><person id="290"><plan selected="yes"><act type="h" x="-14445503.813351259" y="3986324.1964633577" end_time="04:43:00" /><leg mode="car" /><act type="h" x="-14445418.081032377" y="3989353.4272793913" start_time="04:43:00" end_time="12:43:00" /></plan></person><person id="291"><plan selected="yes"><act type="h" x="-14445491.381569717" y="3986413.700826293" end_time="04:40:00" /><leg mode="car" /><act type="h" x="-14445446.390249891" y="3989474.4173256303" start_time="04:40:00" end_time="12:40:00" /></plan></person><person id="292"><plan selected="yes"><act type="h" x="-14445410.48629733" y="3986409.6948223803" end_time="04:46:00" /><leg mode="car" /><act type="h" x="-14445495.40019796" y="3989459.186619905" start_time="04:46:00" end_time="12:46:00" /></plan></person><person id="293"><plan selected="yes"><act type="h" x="-14445438.234258486" y="3986280.1158392136" end_time="08:12:00" /><leg mode="car" /><act type="h" x="-14445426.26802264" y="3989377.7807487366" start_time="08:12:00" end_time="16:12:00" /></plan></person><person id="294"><plan selected="yes"><act type="h" x="-14445374.396256205" y="3986180.7230724418" end_time="08:44:00" /><leg mode="car" /><act type="h" x="-14445442.637284195" y="3989497.0640302086" start_time="08:44:00" end_time="16:44:00" /></plan></person><person id="295"><plan selected="yes"><act type="h" x="-14445372.582327668" y="3986444.9424076746" end_time="08:49:00" /><leg mode="car" /><act type="h" x="-14445433.011756087" y="3989391.8943048273" start_time="08:49:00" end_time="16:49:00" /></plan></person><person id="296"><plan selected="yes"><act type="h" x="-14445438.234258486" y="3986280.1158392136" end_time="08:23:00" /><leg mode="car" /><act type="h" x="-14445414.042198643" y="3989570.4651077185" start_time="08:23:00" end_time="16:23:00" /></plan></person><person id="297"><plan selected="yes"><act type="h" x="-14445438.234258486" y="3986280.1158392136" end_time="12:53:00" /><leg mode="car" /><act type="h" x="-14445433.107699962" y="3989533.0414694" start_time="12:53:00" end_time="20:53:00" /></plan></person><person id="298"><plan selected="yes"><act type="h" x="-14445382.71691668" y="3986308.822935118" end_time="12:15:00" /><leg mode="car" /><act type="h" x="-14445472.97128301" y="3989428.0995889697" start_time="12:15:00" end_time="20:15:00" /></plan></person><person id="299"><plan selected="yes"><act type="h" x="-14445306.934668928" y="3986338.089080492" end_time="12:05:00" /><leg mode="car" /><act type="h" x="-14445442.21942783" y="3989417.4340472966" start_time="12:05:00" end_time="20:05:00" /></plan></person><person id="300"><plan selected="yes"><act type="h" x="-14445374.396256205" y="3986180.7230724418" end_time="12:10:00" /><leg mode="car" /><act type="h" x="-14445446.390249891" y="3989474.4173256303" start_time="12:10:00" end_time="20:10:00" /></plan></person><person id="301"><plan selected="yes"><act type="h" x="-14445444.498587132" y="3986231.664469202" end_time="12:06:00" /><leg mode="car" /><act type="h" x="-14445433.011756087" y="3989391.8943048273" start_time="12:06:00" end_time="20:06:00" /></plan></person><person id="302"><plan selected="yes"><act type="h" x="-14445402.360198664" y="3986303.046252141" end_time="12:33:00" /><leg mode="car" /><act type="h" x="-14445418.081032377" y="3989353.4272793913" start_time="12:33:00" end_time="20:33:00" /></plan></person><person id="303"><plan selected="yes"><act type="h" x="-14445491.381569717" y="3986413.700826293" end_time="12:57:00" /><leg mode="car" /><act type="h" x="-14445413.842290387" y="3989356.878648622" start_time="12:57:00" end_time="20:57:00" /></plan></person><person id="304"><plan selected="yes"><act type="h" x="-14445382.71691668" y="3986308.822935118" end_time="12:32:00" /><leg mode="car" /><act type="h" x="-14445439.229960933" y="3989516.575537135" start_time="12:32:00" end_time="20:32:00" /></plan></person><person id="305"><plan selected="yes"><act type="h" x="-14445503.813351259" y="3986324.1964633577" end_time="12:48:00" /><leg mode="car" /><act type="h" x="-14445439.229960933" y="3989516.575537135" start_time="12:48:00" end_time="20:48:00" /></plan></person><person id="306"><plan selected="yes"><act type="h" x="-14445361.278044544" y="3986345.425528317" end_time="12:02:00" /><leg mode="car" /><act type="h" x="-14445433.011756087" y="3989391.8943048273" start_time="12:02:00" end_time="20:02:00" /></plan></person><person id="307"><plan selected="yes"><act type="h" x="-14445402.360198664" y="3986303.046252141" end_time="12:21:00" /><leg mode="car" /><act type="h" x="-14445426.26802264" y="3989377.7807487366" start_time="12:21:00" end_time="20:21:00" /></plan></person><person id="308"><plan selected="yes"><act type="h" x="-14445447.330553694" y="3986249.3978769663" end_time="14:51:00" /><leg mode="car" /><act type="h" x="-14445472.97128301" y="3989428.0995889697" start_time="14:51:00" end_time="22:51:00" /></plan></person><person id="309"><plan selected="yes"><act type="h" x="-14445491.381569717" y="3986413.700826293" end_time="14:02:00" /><leg mode="car" /><act type="h" x="-14445446.390249891" y="3989474.4173256303" start_time="14:02:00" end_time="22:02:00" /></plan></person><person id="310"><plan selected="yes"><ac
[...]
d="yes"><act type="h" x="-14446743.764947174" y="3986384.071591807" end_time="17:07:00" /><leg mode="car" /><act type="h" x="-14445075.67796811" y="3988195.985107507" start_time="17:07:00" end_time="01:07:00" /></plan></person><person id="2958"><plan selected="yes"><act type="h" x="-14446786.044858886" y="3986307.8746932023" end_time="17:41:00" /><leg mode="car" /><act type="h" x="-14445078.512047673" y="3987974.6040014396" start_time="17:41:00" end_time="01:41:00" /></plan></person><person id="2959"><plan selected="yes"><act type="h" x="-14446705.62360339" y="3986335.5417001075" end_time="17:20:00" /><leg mode="car" /><act type="h" x="-14445052.209223801" y="3988032.9346104832" start_time="17:20:00" end_time="01:20:00" /></plan></person><person id="2960"><plan selected="yes"><act type="h" x="-14446870.356734462" y="3986303.3996320716" end_time="17:27:00" /><leg mode="car" /><act type="h" x="-14445085.088735338" y="3988080.066562359" start_time="17:27:00" end_time="01:27:00" /></plan></person><person id="2961"><plan selected="yes"><act type="h" x="-14446705.62360339" y="3986335.5417001075" end_time="12:14:00" /><leg mode="car" /><act type="h" x="-14445776.66119101" y="3986320.4742528135" start_time="12:14:00" end_time="20:14:00" /></plan></person><person id="2962"><plan selected="yes"><act type="h" x="-14446703.687827788" y="3986380.266311185" end_time="21:01:00" /><leg mode="car" /><act type="h" x="-14445919.619150374" y="3986313.7348859007" start_time="21:01:00" end_time="05:01:00" /></plan></person><person id="2963"><plan selected="yes"><act type="h" x="-14446835.620185351" y="3986353.0661507277" end_time="21:10:00" /><leg mode="car" /><act type="h" x="-14445919.619150374" y="3986313.7348859007" start_time="21:10:00" end_time="05:10:00" /></plan></person><person id="2964"><plan selected="yes"><act type="h" x="-14446868.447384942" y="3986390.2411054242" end_time="08:40:00" /><leg mode="car" /><act type="h" x="-14445779.583404012" y="3989910.5430158647" start_time="08:40:00" end_time="16:40:00" /></plan></person><person id="2965"><plan selected="yes"><act type="h" x="-14446677.213006828" y="3986348.6865386204" end_time="08:47:00" /><leg mode="car" /><act type="h" x="-14445816.584481949" y="3989843.5082683237" start_time="08:47:00" end_time="16:47:00" /></plan></person><person id="2966"><plan selected="yes"><act type="h" x="-14446870.356734462" y="3986303.3996320716" end_time="07:31:00" /><leg mode="car" /><act type="h" x="-14440981.690186404" y="3986514.3027511206" start_time="07:31:00" end_time="15:31:00" /></plan></person><person id="2967"><plan selected="yes"><act type="h" x="-14446870.356734462" y="3986303.3996320716" end_time="07:35:00" /><leg mode="car" /><act type="h" x="-14441052.864980742" y="3986447.7279743054" start_time="07:35:00" end_time="15:35:00" /></plan></person><person id="2968"><plan selected="yes"><act type="h" x="-14446663.023737546" y="3986310.2454549093" end_time="07:13:00" /><leg mode="car" /><act type="h" x="-14441040.40255064" y="3986431.6247369642" start_time="07:13:00" end_time="15:13:00" /></plan></person><person id="2969"><plan selected="yes"><act type="h" x="-14446786.044858886" y="3986307.8746932023" end_time="07:01:00" /><leg mode="car" /><act type="h" x="-14440981.690186404" y="3986514.3027511206" start_time="07:01:00" end_time="15:01:00" /></plan></person><person id="2970"><plan selected="yes"><act type="h" x="-14446714.508911137" y="3986310.2684627925" end_time="07:35:00" /><leg mode="car" /><act type="h" x="-14441052.864980742" y="3986447.7279743054" start_time="07:35:00" end_time="15:35:00" /></plan></person><person id="2971"><plan selected="yes"><act type="h" x="-14446663.023737546" y="3986310.2454549093" end_time="07:04:00" /><leg mode="car" /><act type="h" x="-14441052.864980742" y="3986447.7279743054" start_time="07:04:00" end_time="15:04:00" /></plan></person><person id="2972"><plan selected="yes"><act type="h" x="-14446714.508911137" y="3986310.2684627925" end_time="07:03:00" /><leg mode="car" /><act type="h" x="-14440985.522348216" y="3986454.9511890085" start_time="07:03:00" end_time="15:03:00" /></plan></person><person id="2973"><plan selected="yes"><act type="h" x="-14446873.231031764" y="3986352.6521482286" end_time="05:24:00" /><leg mode="car" /><act type="h" x="-14444442.828380302" y="3989934.8807543064" start_time="05:24:00" end_time="13:24:00" /></plan></person><person id="2974"><plan selected="yes"><act type="h" x="-14446835.620185351" y="3986353.0661507277" end_time="17:08:00" /><leg mode="car" /><act type="h" x="-14444497.073663162" y="3990011.185788961" start_time="17:08:00" end_time="01:08:00" /></plan></person><person id="2975"><plan selected="yes"><act type="h" x="-14446870.356734462" y="3986303.3996320716" end_time="17:14:00" /><leg mode="car" /><act type="h" x="-14444423.554162094" y="3990055.699599438" start_time="17:14:00" end_time="01:14:00" /></plan></person><person id="2976"><plan selected="yes"><act type="h" x="-14446868.447384942" y="3986390.2411054242" end_time="17:15:00" /><leg mode="car" /><act type="h" x="-14444381.37948428" y="3990057.626441232" start_time="17:15:00" end_time="01:15:00" /></plan></person><person id="2977"><plan selected="yes"><act type="h" x="-14446836.708713884" y="3986339.11156522" end_time="17:56:00" /><leg mode="car" /><act type="h" x="-14444420.129054312" y="3990011.492723724" start_time="17:56:00" end_time="01:56:00" /></plan></person><person id="2978"><plan selected="yes"><act type="h" x="-14446774.114705821" y="3986386.040322131" end_time="17:37:00" /><leg mode="car" /><act type="h" x="-14444497.073663162" y="3990011.185788961" start_time="17:37:00" end_time="01:37:00" /></plan></person><person id="2979"><plan selected="yes"><act type="h" x="-14446873.231031764" y="3986352.6521482286" end_time="17:04:00" /><leg mode="car" /><act type="h" x="-14444497.073663162" y="3990011.185788961" start_time="17:04:00" end_time="01:04:00" /></plan></person><person id="2980"><plan selected="yes"><act type="h" x="-14446870.356734462" y="3986303.3996320716" end_time="17:46:00" /><leg mode="car" /><act type="h" x="-14444342.405112972" y="3990061.858296994" start_time="17:46:00" end_time="01:46:00" /></plan></person><person id="2981"><plan selected="yes"><act type="h" x="-14446663.023737546" y="3986310.2454549093" end_time="17:09:00" /><leg mode="car" /><act type="h" x="-14444458.578071773" y="3990010.9401556063" start_time="17:09:00" end_time="01:09:00" /></plan></person><person id="2982"><plan selected="yes"><act type="h" x="-14446663.023737546" y="3986310.2454549093" end_time="05:15:00" /><leg mode="car" /><act type="h" x="-14444001.375164062" y="3990080.243385564" start_time="05:15:00" end_time="13:15:00" /></plan></person><person id="2983"><plan selected="yes"><act type="h" x="-14446705.62360339" y="3986335.5417001075" end_time="05:29:00" /><leg mode="car" /><act type="h" x="-14444019.789061492" y="3990031.647577901" start_time="05:29:00" end_time="13:29:00" /></plan></person><person id="2984"><plan selected="yes"><act type="h" x="-14446774.114705821" y="3986386.040322131" end_time="00:02:00" /><leg mode="car" /><act type="h" x="-14448889.691621803" y="3986077.799691454" start_time="00:02:00" end_time="08:02:00" /></plan></person><person id="2985"><plan selected="yes"><act type="h" x="-14446714.508911137" y="3986310.2684627925" end_time="00:59:00" /><leg mode="car" /><act type="h" x="-14448904.85966674" y="3986075.0443848963" start_time="00:59:00" end_time="08:59:00" /></plan></person><person id="2986"><plan selected="yes"><act type="h" x="-14446870.356734462" y="3986303.3996320716" end_time="00:06:00" /><leg mode="car" /><act type="h" x="-14448859.861813914" y="3986072.060754679" start_time="00:06:00" end_time="08:06:00" /></plan></person><person id="2987"><plan selected="yes"><act type="h" x="-14446870.356734462" y="3986303.3996320716" end_time="00:38:00" /><leg mode="car" /><act type="h" x="-14448737.46045499" y="3986092.2948524817" start_time="00:38:00" end_time="08:38:00" /></plan></person><person id="2988"><plan selected="yes"><act type="h" x="-14446714.508911137" y="3986310.2684627925" end_time="00:25:00" /><leg mode="car" /><act type="h" x="-14448887.877850285" y="3986090.1941048284" start_time="00:25:00" end_time="08:25:00" /></plan></person><person id="2989"><plan selected="yes"><act type="h" x="-14446677.213006828" y="3986348.6865386204" end_time="19:48:00" /><leg mode="car" /><act type="h" x="-14448895.609361049" y="3986054.2128352877" start_time="19:48:00" end_time="03:48:00" /></plan></person><person id="2990"><plan selected="yes"><act type="h" x="-14446868.447384942" y="3986390.2411054242" end_time="19:30:00" /><leg mode="car" /><act type="h" x="-14448909.71614499" y="3986091.2347083385" start_time="19:30:00" end_time="03:30:00" /></plan></person><person id="2991"><plan selected="yes"><act type="h" x="-14446774.114705821" y="3986386.040322131" end_time="19:25:00" /><leg mode="car" /><act type="h" x="-14448908.08409389" y="3986085.007601618" start_time="19:25:00" end_time="03:25:00" /></plan></person><person id="2992"><plan selected="yes"><act type="h" x="-14446677.213006828" y="3986348.6865386204" end_time="19:16:00" /><leg mode="car" /><act type="h" x="-14448852.878910875" y="3986070.1530822166" start_time="19:16:00" end_time="03:16:00" /></plan></person><person id="2993"><plan selected="yes"><act type="h" x="-14446868.447384942" y="3986390.2411054242" end_time="19:55:00" /><leg mode="car" /><act type="h" x="-14448737.46045499" y="3986092.2948524817" start_time="19:55:00" end_time="03:55:00" /></plan></person><person id="2994"><plan selected="yes"><act type="h" x="-14446844.995870972" y="3986390.5411612475" end_time="19:16:00" /><leg mode="car" /><act type="h" x="-14448909.71614499" y="3986091.2347083385" start_time="19:16:00" end_time="03:16:00" /></plan></person><person id="2995"><plan selected="yes"><act type="h" x="-14446677.213006828" y="3986348.6865386204" end_time="09:05:00" /><leg mode="car" /><act type="h" x="-14447413.160682835" y="3989706.285852174" start_time="09:05:00" end_time="17:05:00" /></plan></person><person id="2996"><plan selected="yes"><act type="h" x="-14446870.356734462" y="3986303.3996320716" end_time="09:25:00" /><leg mode="car" /><act type="h" x="-14447413.160682835" y="3989706.285852174" start_time="09:25:00" end_time="17:25:00" /></plan></person><person id="2997"><plan selected="yes"><act type="h" x="-14446835.620185351" y="3986353.0661507277" end_time="09:55:00" /><leg mode="car" /><act type="h" x="-14447433.567944523" y="3989670.120216741" start_time="09:55:00" end_time="17:55:00" /></plan></person><person id="2998"><plan selected="yes"><act type="h" x="-14446714.508911137" y="3986310.2684627925" end_time="09:22:00" /><leg mode="car" /><act type="h" x="-14447506.799893718" y="3989684.0902107507" start_time="09:22:00" end_time="17:22:00" /></plan></person><person id="2999"><plan selected="yes"><act type="h" x="-14446743.764947174" y="3986384.071591807" end_time="09:50:00" /><leg mode="car" /><act type="h" x="-14447506.799893718" y="3989684.0902107507" start_time="09:50:00" end_time="17:50:00" /></plan></person><person id="3000"><plan selected="yes"><act type="h" x="-14446836.708713884" y="3986339.11156522" end_time="09:14:00" /><leg mode="car" /><act type="h" x="-14447506.799893718" y="3989684.0902107507" start_time="09:14:00" end_time="17:14:00" /></plan></person><person id="3001"><plan selected="yes"><act type="h" x="-14446743.764947174" y="3986384.071591807" end_time="09:05:00" /><leg mode="car" /><act type="h" x="-14447433.567944523" y="3989670.120216741" start_time="09:05:00" end_time="17:05:00" /></plan></person><person id="3002"><plan selected="yes"><act type="h" x="-14446677.213006828" y="3986348.6865386204" end_time="19:28:00" /><leg mode="car" /><act type="h" x="-14447506.799893718" y="3989684.0902107507" start_time="19:28:00" end_time="03:28:00" /></plan></person><person id="3003"><plan selected="yes"><act type="h" x="-14446703.687827788" y="3986380.266311185" end_time="19:37:00" /><leg mode="car" /><act type="h" x="-14447506.799893718" y="3989684.0902107507" start_time="19:37:00" end_time="03:37:00" /></plan></person><person id="3004"><plan selected="yes"><act type="h" x="-14446873.231031764" y="3986352.6521482286" end_time="19:52:00" /><leg mode="car" /><act type="h" x="-14447634.496565208" y="3989705.649773882" start_time="19:52:00" end_time="03:52:00" /></plan></person><person id="3005"><plan selected="yes"><act type="h" x="-14446836.708713884" y="3986339.11156522" end_time="22:54:00" /><leg mode="car" /><act type="h" x="-14447634.496565208" y="3989705.649773882" start_time="22:54:00" end_time="06:54:00" /></plan></person><person id="3006"><plan selected="yes"><act type="h" x="-14446714.508911137" y="3986310.2684627925" end_time="22:42:00" /><leg mode="car" /><act type="h" x="-14447413.160682835" y="3989706.285852174" start_time="22:42:00" end_time="06:42:00" /></plan></person><person id="3007"><plan selected="yes"><act type="h" x="-14446835.620185351" y="3986353.0661507277" end_time="22:27:00" /><leg mode="car" /><act type="h" x="-14447634.496565208" y="3989705.649773882" start_time="22:27:00" end_time="06:27:00" /></plan></person><person id="3008"><plan selected="yes"><act type="h" x="-14446743.764947174" y="3986384.071591807" end_time="06:58:00" /><leg mode="car" /><act type="h" x="-14440376.223902913" y="3986747.5714333337" start_time="06:58:00" end_time="14:58:00" /></plan></person><person id="3009"><plan selected="yes"><act type="h" x="-14446835.620185351" y="3986353.0661507277" end_time="06:51:00" /><leg mode="car" /><act type="h" x="-14440389.349136667" y="3986707.982169938" start_time="06:51:00" end_time="14:51:00" /></plan></person><person id="3010"><plan selected="yes"><act type="h" x="-14446705.62360339" y="3986335.5417001075" end_time="06:28:00" /><leg mode="car" /><act type="h" x="-14440448.828015087" y="3986638.4406173676" start_time="06:28:00" end_time="14:28:00" /></plan></person><person id="3011"><plan selected="yes"><act type="h" x="-14446803.015354054" y="3986388.5388370203" end_time="09:31:00" /><leg mode="car" /><act type="h" x="-14440371.792792287" y="3986764.0360319396" start_time="09:31:00" end_time="17:31:00" /></plan></person><person id="3012"><plan selected="yes"><act type="h" x="-14446786.044858886" y="3986307.8746932023" end_time="11:56:00" /><leg mode="car" /><act type="h" x="-14440372.392352926" y="3986790.6253061565" start_time="11:56:00" end_time="19:56:00" /></plan></person><person id="3013"><plan selected="yes"><act type="h" x="-14446705.62360339" y="3986335.5417001075" end_time="11:29:00" /><leg mode="car" /><act type="h" x="-14440425.5653243" y="3986660.1001156885" start_time="11:29:00" end_time="19:29:00" /></plan></person><person id="3014"><plan selected="yes"><act type="h" x="-14446844.995870972" y="3986390.5411612475" end_time="11:39:00" /><leg mode="car" /><act type="h" x="-14440381.432402438" y="3986728.1229574294" start_time="11:39:00" end_time="19:39:00" /></plan></person><person id="3015"><plan selected="yes"><act type="h" x="-14446786.044858886" y="3986307.8746932023" end_time="11:19:00" /><leg mode="car" /><act type="h" x="-14440372.392352926" y="3986790.6253061565" start_time="11:19:00" end_time="19:19:00" /></plan></person><person id="3016"><plan selected="yes"><act type="h" x="-14446835.620185351" y="3986353.0661507277" end_time="11:10:00" /><leg mode="car" /><act type="h" x="-14440376.223902913" y="3986747.5714333337" start_time="11:10:00" end_time="19:10:00" /></plan></person><person id="3017"><plan selected="yes"><act type="h" x="-14446714.508911137" y="3986310.2684627925" end_time="11:16:00" /><leg mode="car" /><act type="h" x="-14440372.392352926" y="3986790.6253061565" start_time="11:16:00" end_time="19:16:00" /></plan></person><person id="3018"><plan selected="yes"><act type="h" x="-14446844.995870972" y="3986390.5411612475" end_time="11:25:00" /><leg mode="car" /><act type="h" x="-14440425.5653243" y="3986660.1001156885" start_time="11:25:00" end_time="19:25:00" /></plan></person><person id="3019"><plan selected="yes"><act type="h" x="-14446868.447384942" y="3986390.2411054242" end_time="11:56:00" /><leg mode="car" /><act type="h" x="-14440404.326652795" y="3986685.648532425" start_time="11:56:00" end_time="19:56:00" /></plan></person><person id="3020"><plan selected="yes"><act type="h" x="-14446835.620185351" y="3986353.0661507277" end_time="12:11:00" /><leg mode="car" /><act type="h" x="-14440448.828015087" y="3986638.4406173676" start_time="12:11:00" end_time="20:11:00" /></plan></person><person id="3021"><plan selected="yes"><act type="h" x="-14446743.764947174" y="3986384.071591807" end_time="12:43:00" /><leg mode="car" /><act type="h" x="-14440381.432402438" y="3986728.1229574294" start_time="12:43:00" end_time="20:43:00" /></plan></person><person id="3022"><plan selected="yes"><act type="h" x="-14446870.356734462" y="3986303.3996320716" end_time="12:03:00" /><leg mode="car" /><act type="h" x="-14440371.792792287" y="3986764.0360319396" start_time="12:03:00" end_time="20:03:00" /></plan></person><person id="3023"><plan selected="yes"><act type="h" x="-14446705.62360339" y="3986335.5417001075" end_time="12:41:00" /><leg mode="car" /><act type="h" x="-14440448.828015087" y="3986638.4406173676" start_time="12:41:00" end_time="20:41:00" /></plan></person><person id="3024"><plan selected="yes"><act type="h" x="-14446663.023737546" y="3986310.2454549093" end_time="12:18:00" /><leg mode="car" /><act type="h" x="-14440404.326652795" y="3986685.648532425" start_time="12:18:00" end_time="20:18:00" /></plan></person><person id="3025"><plan selected="yes"><act type="h" x="-14446677.213006828" y="3986348.6865386204" end_time="12:39:00" /><leg mode="car" /><act type="h" x="-14440376.223902913" y="3986747.5714333337" start_time="12:39:00" end_time="20:39:00" /></plan></person><person id="3026"><plan selected="yes"><act type="h" x="-14446774.114705821" y="3986386.040322131" end_time="18:20:00" /><leg mode="car" /><act type="h" x="-14440404.326652795" y="3986685.648532425" start_time="18:20:00" end_time="02:20:00" /></plan></person><person id="3027"><plan selected="yes"><act type="h" x="-14446705.62360339" y="3986335.5417001075" end_time="18:37:00" /><leg mode="car" /><act type="h" x="-14440425.5653243" y="3986660.1001156885" start_time="18:37:00" end_time="02:37:00" /></plan></person><person id="3028"><plan selected="yes"><act type="h" x="-14446705.62360339" y="3986335.5417001075" end_time="18:53:00" /><leg mode="car" /><act type="h" x="-14440372.392352926" y="3986790.6253061565" start_time="18:53:00" end_time="02:53:00" /></plan></person><person id="3029"><plan selected="yes"><act type="h" x="-14446705.62360339" y="3986335.5417001075" end_time="18:50:00" /><leg mode="car" /><act type="h" x="-14440448.828015087" y="3986638.4406173676" start_time="18:50:00" end_time="02:50:00" /></plan></person><person id="3030"><plan selected="yes"><act type="h" x="-14446836.708713884" y="3986339.11156522" end_time="18:33:00" /><leg mode="car" /><act type="h" x="-14440389.349136667" y="3986707.982169938" start_time="18:33:00" end_time="02:33:00" /></plan></person><person id="3031"><plan selected="yes"><act type="h" x="-14446844.995870972" y="3986390.5411612475" end_time="18:10:00" /><leg mode="car" /><act type="h" x="-14440389.349136667" y="3986707.982169938" start_time="18:10:00" end_time="02:10:00" /></plan></person><person id="3032"><plan selected="yes"><act type="h" x="-14446873.231031764" y="3986352.6521482286" end_time="21:56:00" /><leg mode="car" /><act type="h" x="-14440389.349136667" y="3986707.982169938" start_time="21:56:00" end_time="05:56:00" /></plan></person><person id="3033"><plan selected="yes"><act type="h" x="-14446663.023737546" y="3986310.2454549093" end_time="21:38:00" /><leg mode="car" /><act type="h" x="-14440404.326652795" y="3986685.648532425" start_time="21:38:00" end_time="05:38:00" /></plan></person></plans>