[INFO] Error stacktraces are turned on.
[INFO] Scanning for projects...
[INFO] 
[INFO] -----------------------< org.matsim.contrib:ev >------------------------
[INFO] Building ev 2025.0-SNAPSHOT
[INFO]   from pom.xml
[INFO] --------------------------------[ jar ]---------------------------------
[INFO] 
[INFO] --- exec-maven-plugin:3.0.0:java (default-cli) @ ev ---
2024-11-11T19:10:59,457  INFO RunEvExampleWithEvScoring:59 Starting simulation run with the following arguments:
2024-11-11T19:10:59,459  INFO RunEvExampleWithEvScoring:60 args=[./scenarios/utahev/utahevconfig.xml]
2024-11-11T19:10:59,472  INFO IOUtils:224 Resolved ./scenarios/utahev/utahevconfig.xml to ./scenarios/utahev/utahevconfig.xml
2024-11-11T19:10:59,475  INFO Config:550 setting context to [file:/home/isaacp/research/repos/EvMatsim/contribs/ev/]
2024-11-11T19:10:59,514  INFO Version:21 HV000001: Hibernate Validator 8.0.1.Final
2024-11-11T19:10:59,607  INFO MatsimXmlParser:170 starting to parse xml from url file:/home/isaacp/research/repos/EvMatsim/contribs/ev/./scenarios/utahev/utahevconfig.xml ...
2024-11-11T19:10:59,629  INFO ConfigReader:105 using config_v2-reader
2024-11-11T19:10:59,629  INFO MatsimXmlParser:296 Trying to load http://www.matsim.org/files/dtd/config_v2.dtd. In some cases (e.g. network interface up but no connection), this may take a bit.
2024-11-11T19:11:00,032  INFO Config:550 setting context to [file:/home/isaacp/research/repos/EvMatsim/contribs/ev/./scenarios/utahev/utahevconfig.xml]
2024-11-11T19:11:00,033  INFO CommandLine:511 Received 0 positional command line arguments:
2024-11-11T19:11:00,034  INFO CommandLine:512    
2024-11-11T19:11:00,034  INFO CommandLine:534 Received 0 command line options with 0 prefixes:
2024-11-11T19:11:00,047  INFO ScenarioLoaderImpl:135 loading network from file:/home/isaacp/research/repos/EvMatsim/contribs/ev/scenarios/utahev/utahevnetwork.xml
2024-11-11T19:11:00,048  INFO MatsimXmlParser:170 starting to parse xml from url file:/home/isaacp/research/repos/EvMatsim/contribs/ev/scenarios/utahev/utahevnetwork.xml ...
2024-11-11T19:11:00,115  INFO MatsimNetworkReader:122 using network_v2-reader.
2024-11-11T19:11:00,115  INFO MatsimXmlParser:296 Trying to load http://www.matsim.org/files/dtd/network_v2.dtd. In some cases (e.g. network interface up but no connection), this may take a bit.
2024-11-11T19:11:00,281  INFO NetworkImpl:165  node # 1
2024-11-11T19:11:00,281  INFO NetworkImpl:165  node # 4
2024-11-11T19:11:00,283  INFO NetworkImpl:165  node # 16
2024-11-11T19:11:00,286  INFO NetworkImpl:165  node # 64
2024-11-11T19:11:00,294  INFO NetworkImpl:165  node # 256
2024-11-11T19:11:00,303  INFO NetworkImpl:165  node # 1024
2024-11-11T19:11:00,321  INFO NetworkImpl:165  node # 4096
2024-11-11T19:11:00,359  INFO NetworkImpl:165  node # 16384
2024-11-11T19:11:00,388  INFO NetworkImpl:161  link # 1
2024-11-11T19:11:00,389  INFO NetworkImpl:161  link # 4
2024-11-11T19:11:00,391  INFO NetworkImpl:161  link # 16
2024-11-11T19:11:00,396  INFO NetworkImpl:161  link # 64
2024-11-11T19:11:00,409  INFO NetworkImpl:161  link # 256
2024-11-11T19:11:00,427  INFO NetworkImpl:161  link # 1024
2024-11-11T19:11:00,472  INFO NetworkImpl:161  link # 4096
2024-11-11T19:11:00,562  INFO NetworkImpl:161  link # 16384
2024-11-11T19:11:00,680  INFO ScenarioLoaderImpl:172 no facilities file set in config, therefore not loading any facilities.  This is not a problem except if you are using facilities
2024-11-11T19:11:00,680  INFO ScenarioLoaderImpl:188 no facility-attributes file set in config, not loading any facility attributes
2024-11-11T19:11:00,681  INFO ScenarioLoaderImpl:196 loading population from file:/home/isaacp/research/repos/EvMatsim/contribs/ev/scenarios/utahev/utahevplans.xml
2024-11-11T19:11:00,683  INFO MatsimXmlParser:170 starting to parse xml from url file:/home/isaacp/research/repos/EvMatsim/contribs/ev/scenarios/utahev/utahevplans.xml ...
2024-11-11T19:11:00,685  INFO PopulationReader:150 using plans_v4-reader.
2024-11-11T19:11:00,685  INFO MatsimXmlParser:296 Trying to load http://www.matsim.org/files/dtd/plans_v4.dtd. In some cases (e.g. network interface up but no connection), this may take a bit.
2024-11-11T19:11:00,997  INFO ParallelPopulationReaderMatsimV4:167 Start parallel population reading...
2024-11-11T19:11:01,004  INFO PopulationImpl:107  person # 1
2024-11-11T19:11:01,007  INFO PopulationImpl:107  person # 4
2024-11-11T19:11:01,008  INFO PopulationImpl:107  person # 16
2024-11-11T19:11:01,012  INFO PopulationImpl:107  person # 64
2024-11-11T19:11:01,018  INFO PopulationImpl:107  person # 256
2024-11-11T19:11:01,039  INFO PopulationImpl:107  person # 1024
2024-11-11T19:11:01,068  INFO PopulationImpl:107  person # 4096
2024-11-11T19:11:01,117  INFO PopulationImpl:107  person # 16384
2024-11-11T19:11:01,401  INFO PopulationImpl:107  person # 65536
2024-11-11T19:11:01,660  INFO ParallelPopulationReaderMatsimV4:202 Finished parallel population reading...
2024-11-11T19:11:01,661  INFO PopulationUtils:1122  person # 103028
2024-11-11T19:11:01,661  INFO ScenarioLoaderImpl:244 no person-attributes file set in config, not loading any person attributes
2024-11-11T19:11:01,661  INFO ScenarioLoaderImpl:258 no households file set in config, not loading households
2024-11-11T19:11:01,661  INFO ScenarioLoaderImpl:292 no transit schedule file set in config, not loading any transit schedule
2024-11-11T19:11:01,661  INFO ScenarioLoaderImpl:333 no transit vehicles file set in config, not loading any transit vehicles
2024-11-11T19:11:01,661  INFO ScenarioLoaderImpl:339 loading vehicles from utahevvehicles.xml
2024-11-11T19:11:01,662  INFO MatsimXmlParser:170 starting to parse xml from url file:/home/isaacp/research/repos/EvMatsim/contribs/ev/scenarios/utahev/utahevvehicles.xml ...
2024-11-11T19:11:01,683  INFO MatsimXmlParser:296 Trying to load http://www.matsim.org/files/dtd/vehicleDefinitions_v2.0.xsd. In some cases (e.g. network interface up but no connection), this may take a bit.
2024-11-11T19:11:01,861  INFO MatsimXmlParser:296 Trying to load http://www.matsim.org/files/dtd/matsimCommon.xsd. In some cases (e.g. network interface up but no connection), this may take a bit.
2024-11-11T19:11:02,024  INFO MatsimXmlParser:296 Trying to load http://www.matsim.org/files/dtd/vehicleDefinitionsEnumTypes.xsd. In some cases (e.g. network interface up but no connection), this may take a bit.
2024-11-11T19:11:02,195  INFO MatsimVehicleReader$VehicleReader:77 Found following schemaLocation in vehicle definition file: http://www.matsim.org/files/dtd http://www.matsim.org/files/dtd/vehicleDefinitions_v2.0.xsd
2024-11-11T19:11:02,196  INFO VehicleReaderV2:24 Using org.matsim.vehicles.VehicleReaderV2
2024-11-11T19:11:02,211  INFO Counter:70 [VehiclesImpl] added vehicle # 1
2024-11-11T19:11:02,212  INFO Counter:70 [VehiclesImpl] added vehicle # 2
2024-11-11T19:11:02,212  INFO Counter:70 [VehiclesImpl] added vehicle # 4
2024-11-11T19:11:02,213  INFO Counter:70 [VehiclesImpl] added vehicle # 8
2024-11-11T19:11:02,214  INFO Counter:70 [VehiclesImpl] added vehicle # 16
2024-11-11T19:11:02,215  INFO Counter:70 [VehiclesImpl] added vehicle # 32
2024-11-11T19:11:02,219  INFO Counter:70 [VehiclesImpl] added vehicle # 64
2024-11-11T19:11:02,224  INFO Counter:70 [VehiclesImpl] added vehicle # 128
2024-11-11T19:11:02,231  INFO Counter:70 [VehiclesImpl] added vehicle # 256
2024-11-11T19:11:02,236  INFO Counter:70 [VehiclesImpl] added vehicle # 512
2024-11-11T19:11:02,245  INFO Counter:70 [VehiclesImpl] added vehicle # 1024
2024-11-11T19:11:02,256  INFO Counter:70 [VehiclesImpl] added vehicle # 2048
2024-11-11T19:11:02,274  INFO Counter:70 [VehiclesImpl] added vehicle # 4096
2024-11-11T19:11:02,298  INFO Counter:70 [VehiclesImpl] added vehicle # 8192
2024-11-11T19:11:02,329  INFO Counter:70 [VehiclesImpl] added vehicle # 16384
2024-11-11T19:11:02,431  INFO Counter:70 [VehiclesImpl] added vehicle # 32768
2024-11-11T19:11:02,527  INFO Counter:70 [VehiclesImpl] added vehicle # 65536
2024-11-11T19:11:02,636  INFO VspConfigConsistencyCheckerImpl:68 NOT running vsp config consistency check because vsp defaults checking level is set to IGNORE
2024-11-11T19:11:03,214  INFO SimStepParallelEventsManagerImpl:80 number of threads=1
2024-11-11T19:11:03,216  INFO MatsimXmlParser:170 starting to parse xml from url file:/home/isaacp/research/repos/EvMatsim/contribs/ev/scenarios/utahev/utahevchargers.xml ...
2024-11-11T19:11:03,217  INFO MatsimXmlParser:296 Trying to load http://matsim.org/files/dtd/chargers_v1.dtd. In some cases (e.g. network interface up but no connection), this may take a bit.
2024-11-11T19:11:03,709  INFO EventsManagerImpl:138 adding Event-Handler: org.matsim.core.trafficmonitoring.TravelTimeCalculator
2024-11-11T19:11:03,709  INFO EventsManagerImpl:144   org.matsim.api.core.v01.events.handler.LinkEnterEventHandler
2024-11-11T19:11:03,709  INFO EventsManagerImpl:205     > org.matsim.api.core.v01.events.LinkEnterEvent
2024-11-11T19:11:03,709  INFO EventsManagerImpl:144   org.matsim.api.core.v01.events.handler.LinkLeaveEventHandler
2024-11-11T19:11:03,709  INFO EventsManagerImpl:205     > org.matsim.api.core.v01.events.LinkLeaveEvent
2024-11-11T19:11:03,709  INFO EventsManagerImpl:144   org.matsim.api.core.v01.events.handler.VehicleEntersTrafficEventHandler
2024-11-11T19:11:03,710  INFO EventsManagerImpl:205     > org.matsim.api.core.v01.events.VehicleEntersTrafficEvent
2024-11-11T19:11:03,710  INFO EventsManagerImpl:144   org.matsim.api.core.v01.events.handler.VehicleLeavesTrafficEventHandler
2024-11-11T19:11:03,710  INFO EventsManagerImpl:205     > org.matsim.api.core.v01.events.VehicleLeavesTrafficEvent
2024-11-11T19:11:03,710  INFO EventsManagerImpl:144   org.matsim.core.api.experimental.events.handler.VehicleArrivesAtFacilityEventHandler
2024-11-11T19:11:03,710  INFO EventsManagerImpl:205     > org.matsim.core.api.experimental.events.VehicleArrivesAtFacilityEvent
2024-11-11T19:11:03,710  INFO EventsManagerImpl:144   org.matsim.api.core.v01.events.handler.VehicleAbortsEventHandler
2024-11-11T19:11:03,710  INFO EventsManagerImpl:205     > org.matsim.api.core.v01.events.VehicleAbortsEvent
2024-11-11T19:11:03,710  INFO EventsManagerImpl:154 
2024-11-11T19:11:03,710  INFO EventsManagerImpl:138 adding Event-Handler: org.matsim.core.trafficmonitoring.TravelTimeCalculator
2024-11-11T19:11:03,710  INFO EventsManagerImpl:144   org.matsim.api.core.v01.events.handler.LinkEnterEventHandler
2024-11-11T19:11:03,710  INFO EventsManagerImpl:205     > org.matsim.api.core.v01.events.LinkEnterEvent
2024-11-11T19:11:03,710  INFO EventsManagerImpl:144   org.matsim.api.core.v01.events.handler.LinkLeaveEventHandler
2024-11-11T19:11:03,710  INFO EventsManagerImpl:205     > org.matsim.api.core.v01.events.LinkLeaveEvent
2024-11-11T19:11:03,711  INFO EventsManagerImpl:144   org.matsim.api.core.v01.events.handler.VehicleEntersTrafficEventHandler
2024-11-11T19:11:03,711  INFO EventsManagerImpl:205     > org.matsim.api.core.v01.events.VehicleEntersTrafficEvent
2024-11-11T19:11:03,711  INFO EventsManagerImpl:144   org.matsim.api.core.v01.events.handler.VehicleLeavesTrafficEventHandler
2024-11-11T19:11:03,711  INFO EventsManagerImpl:205     > org.matsim.api.core.v01.events.VehicleLeavesTrafficEvent
2024-11-11T19:11:03,711  INFO EventsManagerImpl:144   org.matsim.core.api.experimental.events.handler.VehicleArrivesAtFacilityEventHandler
2024-11-11T19:11:03,711  INFO EventsManagerImpl:205     > org.matsim.core.api.experimental.events.VehicleArrivesAtFacilityEvent
2024-11-11T19:11:03,711  INFO EventsManagerImpl:144   org.matsim.api.core.v01.events.handler.VehicleAbortsEventHandler
2024-11-11T19:11:03,711  INFO EventsManagerImpl:205     > org.matsim.api.core.v01.events.VehicleAbortsEvent
2024-11-11T19:11:03,711  INFO EventsManagerImpl:154 
2024-11-11T19:11:03,712  INFO OutputDirectoryHierarchy:278 ###########################################################
2024-11-11T19:11:03,712  INFO OutputDirectoryHierarchy:279 ### THE CONTROLER WILL DELETE THE EXISTING OUTPUT DIRECTORY:
2024-11-11T19:11:03,712  INFO OutputDirectoryHierarchy:280 ### ./scenarios/utahev/output
2024-11-11T19:11:03,712  INFO OutputDirectoryHierarchy:282 ###########################################################
2024-11-11T19:11:04,190  INFO StrategyManager:77 global innovation switch off after iteration: 2147483647
2024-11-11T19:11:04,193  INFO GenericStrategyManagerImpl:330 added change request:  iteration=-2147483648 newWeight=0.0 strategy=RandomPlanSelector_ReRoute
2024-11-11T19:11:04,193  INFO GenericStrategyManagerImpl:362 setting PlanSelectorForRemoval to class org.matsim.core.replanning.selectors.WorstPlanForRemovalSelector
2024-11-11T19:11:04,195  INFO EventsManagerImpl:138 adding Event-Handler: org.matsim.core.scoring.ScoringFunctionsForPopulation
2024-11-11T19:11:04,195  INFO EventsManagerImpl:144   org.matsim.core.events.handler.BasicEventHandler
2024-11-11T19:11:04,195  INFO EventsManagerImpl:205     > org.matsim.api.core.v01.events.Event
2024-11-11T19:11:04,196  INFO EventsManagerImpl:154 
2024-11-11T19:11:04,196  INFO EventsManagerImpl:138 adding Event-Handler: org.matsim.core.scoring.ScoringFunctionsForPopulation
2024-11-11T19:11:04,196  INFO EventsManagerImpl:144   org.matsim.core.events.handler.BasicEventHandler
2024-11-11T19:11:04,196  INFO EventsManagerImpl:205     > org.matsim.api.core.v01.events.Event
2024-11-11T19:11:04,197  INFO EventsManagerImpl:154 
2024-11-11T19:11:04,198  INFO MatsimXmlParser:170 starting to parse xml from url file:/home/isaacp/research/repos/EvMatsim/contribs/ev/scenarios/utahev/utahevcounts.xml ...
2024-11-11T19:11:04,200  INFO MatsimCountsReader:107 using counts_v1-reader.
2024-11-11T19:11:04,200  INFO MatsimXmlParser:296 Trying to load http://matsim.org/files/dtd/counts_v1.xsd. In some cases (e.g. network interface up but no connection), this may take a bit.
2024-11-11T19:11:04,379  INFO CalcLinkStats:151  resetting `count' to zero.  This info is here since we want to check when this is happening during normal simulation runs.  kai, jan'11
2024-11-11T19:11:04,418  INFO EventsManagerImpl:138 adding Event-Handler: org.matsim.analysis.VolumesAnalyzer
2024-11-11T19:11:04,419  INFO EventsManagerImpl:144   org.matsim.api.core.v01.events.handler.LinkLeaveEventHandler
2024-11-11T19:11:04,419  INFO EventsManagerImpl:205     > org.matsim.api.core.v01.events.LinkLeaveEvent
2024-11-11T19:11:04,419  INFO EventsManagerImpl:144   org.matsim.api.core.v01.events.handler.VehicleEntersTrafficEventHandler
2024-11-11T19:11:04,419  INFO EventsManagerImpl:205     > org.matsim.api.core.v01.events.VehicleEntersTrafficEvent
2024-11-11T19:11:04,419  INFO EventsManagerImpl:154 
2024-11-11T19:11:04,419  INFO EventsManagerImpl:138 adding Event-Handler: org.matsim.analysis.VolumesAnalyzer
2024-11-11T19:11:04,419  INFO EventsManagerImpl:144   org.matsim.api.core.v01.events.handler.LinkLeaveEventHandler
2024-11-11T19:11:04,419  INFO EventsManagerImpl:205     > org.matsim.api.core.v01.events.LinkLeaveEvent
2024-11-11T19:11:04,419  INFO EventsManagerImpl:144   org.matsim.api.core.v01.events.handler.VehicleEntersTrafficEventHandler
2024-11-11T19:11:04,419  INFO EventsManagerImpl:205     > org.matsim.api.core.v01.events.VehicleEntersTrafficEvent
2024-11-11T19:11:04,419  INFO EventsManagerImpl:154 
2024-11-11T19:11:04,420  INFO EventsManagerImpl:138 adding Event-Handler: org.matsim.analysis.LegHistogram
2024-11-11T19:11:04,420  INFO EventsManagerImpl:144   org.matsim.api.core.v01.events.handler.PersonDepartureEventHandler
2024-11-11T19:11:04,420  INFO EventsManagerImpl:205     > org.matsim.api.core.v01.events.PersonDepartureEvent
2024-11-11T19:11:04,420  INFO EventsManagerImpl:144   org.matsim.api.core.v01.events.handler.PersonArrivalEventHandler
2024-11-11T19:11:04,420  INFO EventsManagerImpl:205     > org.matsim.api.core.v01.events.PersonArrivalEvent
2024-11-11T19:11:04,420  INFO EventsManagerImpl:144   org.matsim.api.core.v01.events.handler.PersonStuckEventHandler
2024-11-11T19:11:04,420  INFO EventsManagerImpl:205     > org.matsim.api.core.v01.events.PersonStuckEvent
2024-11-11T19:11:04,420  INFO EventsManagerImpl:154 
2024-11-11T19:11:04,420  INFO EventsManagerImpl:138 adding Event-Handler: org.matsim.analysis.LegHistogram
2024-11-11T19:11:04,420  INFO EventsManagerImpl:144   org.matsim.api.core.v01.events.handler.PersonDepartureEventHandler
2024-11-11T19:11:04,420  INFO EventsManagerImpl:205     > org.matsim.api.core.v01.events.PersonDepartureEvent
2024-11-11T19:11:04,420  INFO EventsManagerImpl:144   org.matsim.api.core.v01.events.handler.PersonArrivalEventHandler
2024-11-11T19:11:04,420  INFO EventsManagerImpl:205     > org.matsim.api.core.v01.events.PersonArrivalEvent
2024-11-11T19:11:04,420  INFO EventsManagerImpl:144   org.matsim.api.core.v01.events.handler.PersonStuckEventHandler
2024-11-11T19:11:04,421  INFO EventsManagerImpl:205     > org.matsim.api.core.v01.events.PersonStuckEvent
2024-11-11T19:11:04,421  INFO EventsManagerImpl:154 
2024-11-11T19:11:04,421  INFO EventsManagerImpl:138 adding Event-Handler: org.matsim.analysis.CalcLegTimes
2024-11-11T19:11:04,421  INFO EventsManagerImpl:144   org.matsim.api.core.v01.events.handler.PersonDepartureEventHandler
2024-11-11T19:11:04,421  INFO EventsManagerImpl:205     > org.matsim.api.core.v01.events.PersonDepartureEvent
2024-11-11T19:11:04,421  INFO EventsManagerImpl:144   org.matsim.api.core.v01.events.handler.PersonArrivalEventHandler
2024-11-11T19:11:04,421  INFO EventsManagerImpl:205     > org.matsim.api.core.v01.events.PersonArrivalEvent
2024-11-11T19:11:04,421  INFO EventsManagerImpl:144   org.matsim.api.core.v01.events.handler.ActivityEndEventHandler
2024-11-11T19:11:04,421  INFO EventsManagerImpl:205     > org.matsim.api.core.v01.events.ActivityEndEvent
2024-11-11T19:11:04,422  INFO EventsManagerImpl:144   org.matsim.api.core.v01.events.handler.ActivityStartEventHandler
2024-11-11T19:11:04,422  INFO EventsManagerImpl:205     > org.matsim.api.core.v01.events.ActivityStartEvent
2024-11-11T19:11:04,422  INFO EventsManagerImpl:154 
2024-11-11T19:11:04,422  INFO EventsManagerImpl:138 adding Event-Handler: org.matsim.analysis.CalcLegTimes
2024-11-11T19:11:04,422  INFO EventsManagerImpl:144   org.matsim.api.core.v01.events.handler.PersonDepartureEventHandler
2024-11-11T19:11:04,422  INFO EventsManagerImpl:205     > org.matsim.api.core.v01.events.PersonDepartureEvent
2024-11-11T19:11:04,422  INFO EventsManagerImpl:144   org.matsim.api.core.v01.events.handler.PersonArrivalEventHandler
2024-11-11T19:11:04,422  INFO EventsManagerImpl:205     > org.matsim.api.core.v01.events.PersonArrivalEvent
2024-11-11T19:11:04,422  INFO EventsManagerImpl:144   org.matsim.api.core.v01.events.handler.ActivityEndEventHandler
2024-11-11T19:11:04,422  INFO EventsManagerImpl:205     > org.matsim.api.core.v01.events.ActivityEndEvent
2024-11-11T19:11:04,422  INFO EventsManagerImpl:144   org.matsim.api.core.v01.events.handler.ActivityStartEventHandler
2024-11-11T19:11:04,422  INFO EventsManagerImpl:205     > org.matsim.api.core.v01.events.ActivityStartEvent
2024-11-11T19:11:04,422  INFO EventsManagerImpl:154 
2024-11-11T19:11:04,442  INFO AbstractController:57 Used Controler-Class: org.matsim.core.controler.NewControler
2024-11-11T19:11:04,442  INFO Config:510 ConfigConsistencyChecker with runtime type=class org.matsim.core.config.consistency.ConfigConsistencyCheckerImpl was already added; not adding it a second time
2024-11-11T19:11:04,443  INFO EventsManagerImpl:138 adding Event-Handler: org.matsim.contrib.ev.charging.ChargingEventSequenceCollector
2024-11-11T19:11:04,443  INFO EventsManagerImpl:144   org.matsim.contrib.ev.charging.QueuedAtChargerEventHandler
2024-11-11T19:11:04,443  INFO EventsManagerImpl:205     > org.matsim.contrib.ev.charging.QueuedAtChargerEvent
2024-11-11T19:11:04,443  INFO EventsManagerImpl:144   org.matsim.contrib.ev.charging.QuitQueueAtChargerEventHandler
2024-11-11T19:11:04,443  INFO EventsManagerImpl:205     > org.matsim.contrib.ev.charging.QuitQueueAtChargerEvent
2024-11-11T19:11:04,443  INFO EventsManagerImpl:144   org.matsim.contrib.ev.charging.ChargingStartEventHandler
2024-11-11T19:11:04,443  INFO EventsManagerImpl:205     > org.matsim.contrib.ev.charging.ChargingStartEvent
2024-11-11T19:11:04,443  INFO EventsManagerImpl:144   org.matsim.contrib.ev.charging.ChargingEndEventHandler
2024-11-11T19:11:04,443  INFO EventsManagerImpl:205     > org.matsim.contrib.ev.charging.ChargingEndEvent
2024-11-11T19:11:04,443  INFO EventsManagerImpl:154 
2024-11-11T19:11:04,443  INFO EventsManagerImpl:138 adding Event-Handler: org.matsim.contrib.ev.charging.ChargingEventSequenceCollector
2024-11-11T19:11:04,443  INFO EventsManagerImpl:144   org.matsim.contrib.ev.charging.QueuedAtChargerEventHandler
2024-11-11T19:11:04,443  INFO EventsManagerImpl:205     > org.matsim.contrib.ev.charging.QueuedAtChargerEvent
2024-11-11T19:11:04,444  INFO EventsManagerImpl:144   org.matsim.contrib.ev.charging.QuitQueueAtChargerEventHandler
2024-11-11T19:11:04,444  INFO EventsManagerImpl:205     > org.matsim.contrib.ev.charging.QuitQueueAtChargerEvent
2024-11-11T19:11:04,444  INFO EventsManagerImpl:144   org.matsim.contrib.ev.charging.ChargingStartEventHandler
2024-11-11T19:11:04,444  INFO EventsManagerImpl:205     > org.matsim.contrib.ev.charging.ChargingStartEvent
2024-11-11T19:11:04,444  INFO EventsManagerImpl:144   org.matsim.contrib.ev.charging.ChargingEndEventHandler
2024-11-11T19:11:04,444  INFO EventsManagerImpl:205     > org.matsim.contrib.ev.charging.ChargingEndEvent
2024-11-11T19:11:04,444  INFO EventsManagerImpl:154 
2024-11-11T19:11:04,444  INFO EventsManagerImpl:138 adding Event-Handler: org.matsim.contrib.ev.stats.ChargerPowerTimeProfileCalculator
2024-11-11T19:11:04,444  INFO EventsManagerImpl:144   org.matsim.contrib.ev.charging.ChargingStartEventHandler
2024-11-11T19:11:04,444  INFO EventsManagerImpl:205     > org.matsim.contrib.ev.charging.ChargingStartEvent
2024-11-11T19:11:04,444  INFO EventsManagerImpl:144   org.matsim.contrib.ev.charging.ChargingEndEventHandler
2024-11-11T19:11:04,444  INFO EventsManagerImpl:205     > org.matsim.contrib.ev.charging.ChargingEndEvent
2024-11-11T19:11:04,444  INFO EventsManagerImpl:154 
2024-11-11T19:11:04,445  INFO EventsManagerImpl:138 adding Event-Handler: org.matsim.contrib.ev.stats.ChargerPowerTimeProfileCalculator
2024-11-11T19:11:04,445  INFO EventsManagerImpl:144   org.matsim.contrib.ev.charging.ChargingStartEventHandler
2024-11-11T19:11:04,445  INFO EventsManagerImpl:205     > org.matsim.contrib.ev.charging.ChargingStartEvent
2024-11-11T19:11:04,445  INFO EventsManagerImpl:144   org.matsim.contrib.ev.charging.ChargingEndEventHandler
2024-11-11T19:11:04,445  INFO EventsManagerImpl:205     > org.matsim.contrib.ev.charging.ChargingEndEvent
2024-11-11T19:11:04,445  INFO EventsManagerImpl:154 
2024-11-11T19:11:04,445  INFO Injector:81 === printInjector start ===
2024-11-11T19:11:04,446  INFO Injector:85 org.matsim.contrib.ev.fleet.ElectricFleet 
2024-11-11T19:11:04,446  INFO Injector:86   --> provider: org.matsim.contrib.ev.example.RunEvExampleWithEvScoring$1$1@7bf517d7[Scopes.SINGLETON]
2024-11-11T19:11:04,446  INFO Injector:87   --> source: org.matsim.contrib.ev.example.RunEvExampleWithEvScoring$1.install(RunEvExampleWithEvScoring.java:82)
2024-11-11T19:11:04,446  INFO Injector:89   --> scope: eager singleton
2024-11-11T19:11:04,447  INFO Injector:94   ==full==> ProviderInstanceBinding{key=Key[type=org.matsim.contrib.ev.fleet.ElectricFleet, annotation=[none]], source=org.matsim.contrib.ev.example.RunEvExampleWithEvScoring$1.install(RunEvExampleWithEvScoring.java:82), scope=eager singleton, provider=org.matsim.contrib.ev.example.RunEvExampleWithEvScoring$1$1@7bf517d7}
2024-11-11T19:11:04,447  INFO Injector:96 
2024-11-11T19:11:04,447  INFO Injector:85 org.matsim.core.scoring.ScoringFunctionFactory 
2024-11-11T19:11:04,447  INFO Injector:86   --> provider: FactoryProxy{key=Key[type=org.matsim.core.scoring.ScoringFunctionFactory, annotation=[none]], provider=com.google.inject.internal.ConstructorBindingImpl$Factory@720070e8}
2024-11-11T19:11:04,447  INFO Injector:87   --> source: org.matsim.contrib.ev.example.RunEvExampleWithEvScoring$1.install(RunEvExampleWithEvScoring.java:95)
2024-11-11T19:11:04,447  INFO Injector:89   --> scope: Scopes.NO_SCOPE
2024-11-11T19:11:04,447  INFO Injector:92   --> target: Key[type=org.matsim.contrib.ev.scoring.EvScoringFunctionFactory, annotation=[none]]
2024-11-11T19:11:04,447  INFO Injector:94   ==full==> LinkedKeyBinding{key=Key[type=org.matsim.core.scoring.ScoringFunctionFactory, annotation=[none]], source=org.matsim.contrib.ev.example.RunEvExampleWithEvScoring$1.install(RunEvExampleWithEvScoring.java:95), scope=Scopes.NO_SCOPE, target=Key[type=org.matsim.contrib.ev.scoring.EvScoringFunctionFactory, annotation=[none]]}
2024-11-11T19:11:04,447  INFO Injector:96 
2024-11-11T19:11:04,447  INFO Injector:85 org.matsim.contrib.ev.fleet.ElectricFleetSpecification 
2024-11-11T19:11:04,447  INFO Injector:86   --> provider: org.matsim.contrib.ev.fleet.ElectricFleetModule$1@7140152b[Scopes.SINGLETON]
2024-11-11T19:11:04,447  INFO Injector:87   --> source: org.matsim.contrib.ev.fleet.ElectricFleetModule.install(ElectricFleetModule.java:47)
2024-11-11T19:11:04,447  INFO Injector:89   --> scope: eager singleton
2024-11-11T19:11:04,448  INFO Injector:94   ==full==> ProviderInstanceBinding{key=Key[type=org.matsim.contrib.ev.fleet.ElectricFleetSpecification, annotation=[none]], source=org.matsim.contrib.ev.fleet.ElectricFleetModule.install(ElectricFleetModule.java:47), scope=eager singleton, provider=org.matsim.contrib.ev.fleet.ElectricFleetModule$1@7140152b}
2024-11-11T19:11:04,448  INFO Injector:96 
2024-11-11T19:11:04,448  INFO Injector:85 org.matsim.core.mobsim.qsim.AbstractQSimModule @com.google.inject.internal.Element(setName=,uniqueId=132, type=MULTIBINDER, keyType=)
2024-11-11T19:11:04,448  INFO Injector:86   --> provider: ConstantFactory{value=org.matsim.contrib.ev.fleet.ElectricFleetModule$2@1e9a9117}[Scopes.SINGLETON]
2024-11-11T19:11:04,448  INFO Injector:87   --> source: org.matsim.contrib.ev.fleet.ElectricFleetModule.install(ElectricFleetModule.java:57)
2024-11-11T19:11:04,448  INFO Injector:89   --> scope: eager singleton
2024-11-11T19:11:04,448  INFO Injector:94   ==full==> InstanceBinding{key=Key[type=org.matsim.core.mobsim.qsim.AbstractQSimModule, annotation=@com.google.inject.internal.Element(setName=,uniqueId=132, type=MULTIBINDER, keyType=)], source=org.matsim.contrib.ev.fleet.ElectricFleetModule.install(ElectricFleetModule.java:57), instance=org.matsim.contrib.ev.fleet.ElectricFleetModule$2@1e9a9117}
2024-11-11T19:11:04,448  INFO Injector:96 
2024-11-11T19:11:04,448  INFO Injector:85 org.matsim.api.core.v01.network.Network @com.google.inject.name.Named("chargers")
2024-11-11T19:11:04,454  INFO Injector:86   --> provider: FactoryProxy{key=Key[type=org.matsim.api.core.v01.network.Network, annotation=@com.google.inject.name.Named("chargers")], provider=@Provides org.matsim.core.scenario.ScenarioByInstanceModule.provideNetwork(ScenarioByInstanceModule.java:60)}[Scopes.SINGLETON]
2024-11-11T19:11:04,454  INFO Injector:87   --> source: org.matsim.contrib.ev.infrastructure.ChargingInfrastructureModule.install(ChargingInfrastructureModule.java:56)
2024-11-11T19:11:04,454  INFO Injector:89   --> scope: eager singleton
2024-11-11T19:11:04,454  INFO Injector:92   --> target: Key[type=org.matsim.api.core.v01.network.Network, annotation=[none]]
2024-11-11T19:11:04,455  INFO Injector:94   ==full==> LinkedKeyBinding{key=Key[type=org.matsim.api.core.v01.network.Network, annotation=@com.google.inject.name.Named("chargers")], source=org.matsim.contrib.ev.infrastructure.ChargingInfrastructureModule.install(ChargingInfrastructureModule.java:56), scope=eager singleton, target=Key[type=org.matsim.api.core.v01.network.Network, annotation=[none]]}
2024-11-11T19:11:04,455  INFO Injector:96 
2024-11-11T19:11:04,455  INFO Injector:85 org.matsim.contrib.ev.infrastructure.ChargingInfrastructureSpecification 
2024-11-11T19:11:04,455  INFO Injector:86   --> provider: org.matsim.contrib.ev.infrastructure.ChargingInfrastructureModule$$Lambda/0x00007f865847aa50@4911785f[Scopes.SINGLETON]
2024-11-11T19:11:04,455  INFO Injector:87   --> source: org.matsim.contrib.ev.infrastructure.ChargingInfrastructureModule.install(ChargingInfrastructureModule.java:58)
2024-11-11T19:11:04,455  INFO Injector:89   --> scope: eager singleton
2024-11-11T19:11:04,455  INFO Injector:94   ==full==> ProviderInstanceBinding{key=Key[type=org.matsim.contrib.ev.infrastructure.ChargingInfrastructureSpecification, annotation=[none]], source=org.matsim.contrib.ev.infrastructure.ChargingInfrastructureModule.install(ChargingInfrastructureModule.java:58), scope=eager singleton, provider=org.matsim.contrib.ev.infrastructure.ChargingInfrastructureModule$$Lambda/0x00007f865847aa50@4911785f}
2024-11-11T19:11:04,455  INFO Injector:96 
2024-11-11T19:11:04,455  INFO Injector:85 org.matsim.core.mobsim.qsim.AbstractQSimModule @com.google.inject.internal.Element(setName=,uniqueId=133, type=MULTIBINDER, keyType=)
2024-11-11T19:11:04,455  INFO Injector:86   --> provider: ConstantFactory{value=org.matsim.contrib.ev.infrastructure.ChargingInfrastructureModule$1@38d8bdad}[Scopes.SINGLETON]
2024-11-11T19:11:04,455  INFO Injector:87   --> source: org.matsim.contrib.ev.infrastructure.ChargingInfrastructureModule.install(ChargingInfrastructureModule.java:65)
2024-11-11T19:11:04,455  INFO Injector:89   --> scope: eager singleton
2024-11-11T19:11:04,455  INFO Injector:94   ==full==> InstanceBinding{key=Key[type=org.matsim.core.mobsim.qsim.AbstractQSimModule, annotation=@com.google.inject.internal.Element(setName=,uniqueId=133, type=MULTIBINDER, keyType=)], source=org.matsim.contrib.ev.infrastructure.ChargingInfrastructureModule.install(ChargingInfrastructureModule.java:65), instance=org.matsim.contrib.ev.infrastructure.ChargingInfrastructureModule$1@38d8bdad}
2024-11-11T19:11:04,455  INFO Injector:96 
2024-11-11T19:11:04,456  INFO Injector:85 org.matsim.contrib.ev.charging.ChargingLogic$Factory 
2024-11-11T19:11:04,456  INFO Injector:86   --> provider: org.matsim.contrib.ev.charging.ChargingModule$1@6031080
2024-11-11T19:11:04,456  INFO Injector:87   --> source: org.matsim.contrib.ev.charging.ChargingModule.install(ChargingModule.java:39)
2024-11-11T19:11:04,456  INFO Injector:89   --> scope: Scopes.NO_SCOPE
2024-11-11T19:11:04,456  INFO Injector:94   ==full==> ProviderInstanceBinding{key=Key[type=org.matsim.contrib.ev.charging.ChargingLogic$Factory, annotation=[none]], source=org.matsim.contrib.ev.charging.ChargingModule.install(ChargingModule.java:39), scope=Scopes.NO_SCOPE, provider=org.matsim.contrib.ev.charging.ChargingModule$1@6031080}
2024-11-11T19:11:04,456  INFO Injector:96 
2024-11-11T19:11:04,456  INFO Injector:85 org.matsim.contrib.ev.charging.ChargingPower$Factory 
2024-11-11T19:11:04,456  INFO Injector:86   --> provider: ConstantFactory{value=org.matsim.contrib.ev.charging.ChargingModule$$Lambda/0x00007f865847bdc8@44571dbd}[Scopes.SINGLETON]
2024-11-11T19:11:04,456  INFO Injector:87   --> source: org.matsim.contrib.ev.charging.ChargingModule.install(ChargingModule.java:47)
2024-11-11T19:11:04,456  INFO Injector:89   --> scope: eager singleton
2024-11-11T19:11:04,456  INFO Injector:94   ==full==> InstanceBinding{key=Key[type=org.matsim.contrib.ev.charging.ChargingPower$Factory, annotation=[none]], source=org.matsim.contrib.ev.charging.ChargingModule.install(ChargingModule.java:47), instance=org.matsim.contrib.ev.charging.ChargingModule$$Lambda/0x00007f865847bdc8@44571dbd}
2024-11-11T19:11:04,456  INFO Injector:96 
2024-11-11T19:11:04,456  INFO Injector:85 org.matsim.core.mobsim.qsim.AbstractQSimModule @com.google.inject.internal.Element(setName=,uniqueId=134, type=MULTIBINDER, keyType=)
2024-11-11T19:11:04,456  INFO Injector:86   --> provider: ConstantFactory{value=org.matsim.contrib.ev.charging.ChargingModule$2@473b281a}[Scopes.SINGLETON]
2024-11-11T19:11:04,456  INFO Injector:87   --> source: org.matsim.contrib.ev.charging.ChargingModule.install(ChargingModule.java:49)
2024-11-11T19:11:04,456  INFO Injector:89   --> scope: eager singleton
2024-11-11T19:11:04,457  INFO Injector:94   ==full==> InstanceBinding{key=Key[type=org.matsim.core.mobsim.qsim.AbstractQSimModule, annotation=@com.google.inject.internal.Element(setName=,uniqueId=134, type=MULTIBINDER, keyType=)], source=org.matsim.contrib.ev.charging.ChargingModule.install(ChargingModule.java:49), instance=org.matsim.contrib.ev.charging.ChargingModule$2@473b281a}
2024-11-11T19:11:04,457  INFO Injector:96 
2024-11-11T19:11:04,457  INFO Injector:85 org.matsim.contrib.ev.discharging.DriveEnergyConsumption$Factory 
2024-11-11T19:11:04,457  INFO Injector:86   --> provider: ConstantFactory{value=org.matsim.contrib.ev.discharging.DischargingModule$$Lambda/0x00007f865847c530@5c9af091}[Scopes.SINGLETON]
2024-11-11T19:11:04,457  INFO Injector:87   --> source: org.matsim.contrib.ev.discharging.DischargingModule.install(DischargingModule.java:36)
2024-11-11T19:11:04,457  INFO Injector:89   --> scope: eager singleton
2024-11-11T19:11:04,457  INFO Injector:94   ==full==> InstanceBinding{key=Key[type=org.matsim.contrib.ev.discharging.DriveEnergyConsumption$Factory, annotation=[none]], source=org.matsim.contrib.ev.discharging.DischargingModule.install(DischargingModule.java:36), instance=org.matsim.contrib.ev.discharging.DischargingModule$$Lambda/0x00007f865847c530@5c9af091}
2024-11-11T19:11:04,457  INFO Injector:96 
2024-11-11T19:11:04,457  INFO Injector:85 org.matsim.contrib.ev.temperature.TemperatureService 
2024-11-11T19:11:04,457  INFO Injector:86   --> provider: ConstantFactory{value=org.matsim.contrib.ev.discharging.DischargingModule$$Lambda/0x00007f865847c930@1495187b}[Scopes.SINGLETON]
2024-11-11T19:11:04,457  INFO Injector:87   --> source: org.matsim.contrib.ev.discharging.DischargingModule.install(DischargingModule.java:37)
2024-11-11T19:11:04,457  INFO Injector:89   --> scope: eager singleton
2024-11-11T19:11:04,457  INFO Injector:94   ==full==> InstanceBinding{key=Key[type=org.matsim.contrib.ev.temperature.TemperatureService, annotation=[none]], source=org.matsim.contrib.ev.discharging.DischargingModule.install(DischargingModule.java:37), instance=org.matsim.contrib.ev.discharging.DischargingModule$$Lambda/0x00007f865847c930@1495187b}
2024-11-11T19:11:04,457  INFO Injector:96 
2024-11-11T19:11:04,457  INFO Injector:85 org.matsim.contrib.ev.discharging.AuxEnergyConsumption$Factory 
2024-11-11T19:11:04,458  INFO Injector:86   --> provider: FactoryProxy{key=Key[type=org.matsim.contrib.ev.discharging.AuxEnergyConsumption$Factory, annotation=[none]], provider=com.google.inject.internal.ConstructorBindingImpl$Factory@56044936}[Scopes.SINGLETON]
2024-11-11T19:11:04,458  INFO Injector:87   --> source: org.matsim.contrib.ev.discharging.DischargingModule.install(DischargingModule.java:38)
2024-11-11T19:11:04,458  INFO Injector:89   --> scope: Scopes.SINGLETON
2024-11-11T19:11:04,458  INFO Injector:92   --> target: Key[type=org.matsim.contrib.ev.discharging.OhdeSlaskiAuxEnergyConsumption$Factory, annotation=[none]]
2024-11-11T19:11:04,458  INFO Injector:94   ==full==> LinkedKeyBinding{key=Key[type=org.matsim.contrib.ev.discharging.AuxEnergyConsumption$Factory, annotation=[none]], source=org.matsim.contrib.ev.discharging.DischargingModule.install(DischargingModule.java:38), scope=Scopes.SINGLETON, target=Key[type=org.matsim.contrib.ev.discharging.OhdeSlaskiAuxEnergyConsumption$Factory, annotation=[none]]}
2024-11-11T19:11:04,458  INFO Injector:96 
2024-11-11T19:11:04,458  INFO Injector:85 org.matsim.core.mobsim.qsim.AbstractQSimModule @com.google.inject.internal.Element(setName=,uniqueId=135, type=MULTIBINDER, keyType=)
2024-11-11T19:11:04,458  INFO Injector:86   --> provider: ConstantFactory{value=org.matsim.contrib.ev.discharging.DischargingModule$1@4746c1d7}[Scopes.SINGLETON]
2024-11-11T19:11:04,458  INFO Injector:87   --> source: org.matsim.contrib.ev.discharging.DischargingModule.install(DischargingModule.java:40)
2024-11-11T19:11:04,458  INFO Injector:89   --> scope: eager singleton
2024-11-11T19:11:04,458  INFO Injector:94   ==full==> InstanceBinding{key=Key[type=org.matsim.core.mobsim.qsim.AbstractQSimModule, annotation=@com.google.inject.internal.Element(setName=,uniqueId=135, type=MULTIBINDER, keyType=)], source=org.matsim.contrib.ev.discharging.DischargingModule.install(DischargingModule.java:40), instance=org.matsim.contrib.ev.discharging.DischargingModule$1@4746c1d7}
2024-11-11T19:11:04,458  INFO Injector:96 
2024-11-11T19:11:04,458  INFO Injector:85 org.matsim.core.events.handler.EventHandler @com.google.inject.internal.Element(setName=,uniqueId=136, type=MULTIBINDER, keyType=)
2024-11-11T19:11:04,458  INFO Injector:86   --> provider: FactoryProxy{key=Key[type=org.matsim.core.events.handler.EventHandler, annotation=@com.google.inject.internal.Element(setName=,uniqueId=136, type=MULTIBINDER, keyType=)], provider=com.google.inject.internal.ConstructorBindingImpl$Factory@2ac20cbe[Scopes.SINGLETON]}
2024-11-11T19:11:04,458  INFO Injector:87   --> source: org.matsim.contrib.ev.stats.EvStatsModule.install(EvStatsModule.java:45)
2024-11-11T19:11:04,458  INFO Injector:89   --> scope: Scopes.NO_SCOPE
2024-11-11T19:11:04,458  INFO Injector:92   --> target: Key[type=org.matsim.contrib.ev.charging.ChargingEventSequenceCollector, annotation=[none]]
2024-11-11T19:11:04,458  INFO Injector:94   ==full==> LinkedKeyBinding{key=Key[type=org.matsim.core.events.handler.EventHandler, annotation=@com.google.inject.internal.Element(setName=,uniqueId=136, type=MULTIBINDER, keyType=)], source=org.matsim.contrib.ev.stats.EvStatsModule.install(EvStatsModule.java:45), scope=Scopes.NO_SCOPE, target=Key[type=org.matsim.contrib.ev.charging.ChargingEventSequenceCollector, annotation=[none]]}
2024-11-11T19:11:04,458  INFO Injector:96 
2024-11-11T19:11:04,458  INFO Injector:85 org.matsim.core.controler.listener.ControlerListener @com.google.inject.internal.Element(setName=,uniqueId=137, type=MULTIBINDER, keyType=)
2024-11-11T19:11:04,459  INFO Injector:86   --> provider: FactoryProxy{key=Key[type=org.matsim.core.controler.listener.ControlerListener, annotation=@com.google.inject.internal.Element(setName=,uniqueId=137, type=MULTIBINDER, keyType=)], provider=com.google.inject.internal.ConstructorBindingImpl$Factory@21576f0f}[Scopes.SINGLETON]
2024-11-11T19:11:04,459  INFO Injector:87   --> source: org.matsim.contrib.ev.stats.EvStatsModule.install(EvStatsModule.java:46)
2024-11-11T19:11:04,459  INFO Injector:89   --> scope: Scopes.SINGLETON
2024-11-11T19:11:04,459  INFO Injector:92   --> target: Key[type=org.matsim.contrib.ev.stats.ChargingProceduresCSVWriter, annotation=[none]]
2024-11-11T19:11:04,459  INFO Injector:94   ==full==> LinkedKeyBinding{key=Key[type=org.matsim.core.controler.listener.ControlerListener, annotation=@com.google.inject.internal.Element(setName=,uniqueId=137, type=MULTIBINDER, keyType=)], source=org.matsim.contrib.ev.stats.EvStatsModule.install(EvStatsModule.java:46), scope=Scopes.SINGLETON, target=Key[type=org.matsim.contrib.ev.stats.ChargingProceduresCSVWriter, annotation=[none]]}
2024-11-11T19:11:04,459  INFO Injector:96 
2024-11-11T19:11:04,459  INFO Injector:85 org.matsim.core.mobsim.qsim.AbstractQSimModule @com.google.inject.internal.Element(setName=,uniqueId=138, type=MULTIBINDER, keyType=)
2024-11-11T19:11:04,459  INFO Injector:86   --> provider: ConstantFactory{value=org.matsim.contrib.ev.stats.EvStatsModule$1@d9ef201}[Scopes.SINGLETON]
2024-11-11T19:11:04,459  INFO Injector:87   --> source: org.matsim.contrib.ev.stats.EvStatsModule.install(EvStatsModule.java:48)
2024-11-11T19:11:04,459  INFO Injector:89   --> scope: eager singleton
2024-11-11T19:11:04,459  INFO Injector:94   ==full==> InstanceBinding{key=Key[type=org.matsim.core.mobsim.qsim.AbstractQSimModule, annotation=@com.google.inject.internal.Element(setName=,uniqueId=138, type=MULTIBINDER, keyType=)], source=org.matsim.contrib.ev.stats.EvStatsModule.install(EvStatsModule.java:48), instance=org.matsim.contrib.ev.stats.EvStatsModule$1@d9ef201}
2024-11-11T19:11:04,459  INFO Injector:96 
2024-11-11T19:11:04,459  INFO Injector:85 org.matsim.core.events.handler.EventHandler @com.google.inject.internal.Element(setName=,uniqueId=139, type=MULTIBINDER, keyType=)
2024-11-11T19:11:04,459  INFO Injector:86   --> provider: FactoryProxy{key=Key[type=org.matsim.core.events.handler.EventHandler, annotation=@com.google.inject.internal.Element(setName=,uniqueId=139, type=MULTIBINDER, keyType=)], provider=com.google.inject.internal.ConstructorBindingImpl$Factory@1dbded9e[Scopes.SINGLETON]}
2024-11-11T19:11:04,459  INFO Injector:87   --> source: org.matsim.contrib.ev.stats.EvStatsModule.install(EvStatsModule.java:66)
2024-11-11T19:11:04,459  INFO Injector:89   --> scope: Scopes.NO_SCOPE
2024-11-11T19:11:04,459  INFO Injector:92   --> target: Key[type=org.matsim.contrib.ev.stats.ChargerPowerTimeProfileCalculator, annotation=[none]]
2024-11-11T19:11:04,459  INFO Injector:94   ==full==> LinkedKeyBinding{key=Key[type=org.matsim.core.events.handler.EventHandler, annotation=@com.google.inject.internal.Element(setName=,uniqueId=139, type=MULTIBINDER, keyType=)], source=org.matsim.contrib.ev.stats.EvStatsModule.install(EvStatsModule.java:66), scope=Scopes.NO_SCOPE, target=Key[type=org.matsim.contrib.ev.stats.ChargerPowerTimeProfileCalculator, annotation=[none]]}
2024-11-11T19:11:04,460  INFO Injector:96 
2024-11-11T19:11:04,460  INFO Injector:85 org.matsim.core.controler.listener.ControlerListener @com.google.inject.internal.Element(setName=,uniqueId=140, type=MULTIBINDER, keyType=)
2024-11-11T19:11:04,460  INFO Injector:86   --> provider: org.matsim.contrib.ev.stats.EvStatsModule$2@20f4d4b1
2024-11-11T19:11:04,460  INFO Injector:87   --> source: org.matsim.contrib.ev.stats.EvStatsModule.install(EvStatsModule.java:67)
2024-11-11T19:11:04,460  INFO Injector:89   --> scope: Scopes.NO_SCOPE
2024-11-11T19:11:04,460  INFO Injector:94   ==full==> ProviderInstanceBinding{key=Key[type=org.matsim.core.controler.listener.ControlerListener, annotation=@com.google.inject.internal.Element(setName=,uniqueId=140, type=MULTIBINDER, keyType=)], source=org.matsim.contrib.ev.stats.EvStatsModule.install(EvStatsModule.java:67), scope=Scopes.NO_SCOPE, provider=org.matsim.contrib.ev.stats.EvStatsModule$2@20f4d4b1}
2024-11-11T19:11:04,460  INFO Injector:96 
2024-11-11T19:11:04,460  INFO Injector:85 org.matsim.core.mobsim.qsim.AbstractQSimModule @com.google.inject.internal.Element(setName=,uniqueId=141, type=MULTIBINDER, keyType=)
2024-11-11T19:11:04,460  INFO Injector:86   --> provider: ConstantFactory{value=org.matsim.contrib.ev.EvModule$1@705603ca}[Scopes.SINGLETON]
2024-11-11T19:11:04,460  INFO Injector:87   --> source: org.matsim.contrib.ev.EvModule.install(EvModule.java:41)
2024-11-11T19:11:04,460  INFO Injector:89   --> scope: eager singleton
2024-11-11T19:11:04,460  INFO Injector:94   ==full==> InstanceBinding{key=Key[type=org.matsim.core.mobsim.qsim.AbstractQSimModule, annotation=@com.google.inject.internal.Element(setName=,uniqueId=141, type=MULTIBINDER, keyType=)], source=org.matsim.contrib.ev.EvModule.install(EvModule.java:41), instance=org.matsim.contrib.ev.EvModule$1@705603ca}
2024-11-11T19:11:04,460  INFO Injector:96 
2024-11-11T19:11:04,460  INFO Injector:85 org.matsim.core.router.RoutingModule @com.google.inject.name.Named("car")
2024-11-11T19:11:04,460  INFO Injector:86   --> provider: org.matsim.contrib.ev.routing.EvNetworkRoutingProvider@736fe877
2024-11-11T19:11:04,460  INFO Injector:87   --> source: org.matsim.contrib.ev.example.RunEvExampleWithEvScoring$1.install(RunEvExampleWithEvScoring.java:98)
2024-11-11T19:11:04,460  INFO Injector:89   --> scope: Scopes.NO_SCOPE
2024-11-11T19:11:04,460  INFO Injector:94   ==full==> ProviderInstanceBinding{key=Key[type=org.matsim.core.router.RoutingModule, annotation=@com.google.inject.name.Named("car")], source=org.matsim.contrib.ev.example.RunEvExampleWithEvScoring$1.install(RunEvExampleWithEvScoring.java:98), scope=Scopes.NO_SCOPE, provider=org.matsim.contrib.ev.routing.EvNetworkRoutingProvider@736fe877}
2024-11-11T19:11:04,460  INFO Injector:96 
2024-11-11T19:11:04,461  INFO Injector:85 org.matsim.api.core.v01.Scenario 
2024-11-11T19:11:04,461  INFO Injector:86   --> provider: ConstantFactory{value=org.matsim.core.scenario.MutableScenario@69845ae6}[Scopes.SINGLETON]
2024-11-11T19:11:04,461  INFO Injector:87   --> source: org.matsim.core.scenario.ScenarioByInstanceModule.install(ScenarioByInstanceModule.java:52)
2024-11-11T19:11:04,461  INFO Injector:89   --> scope: eager singleton
2024-11-11T19:11:04,461  INFO Injector:94   ==full==> InstanceBinding{key=Key[type=org.matsim.api.core.v01.Scenario, annotation=[none]], source=org.matsim.core.scenario.ScenarioByInstanceModule.install(ScenarioByInstanceModule.java:52), instance=org.matsim.core.scenario.MutableScenario@69845ae6}
2024-11-11T19:11:04,461  INFO Injector:96 
2024-11-11T19:11:04,461  INFO Injector:85 org.matsim.facilities.ActivityFacilities 
2024-11-11T19:11:04,461  INFO Injector:86   --> provider: @Provides org.matsim.core.scenario.ScenarioByInstanceModule.provideActivityFacilities(ScenarioByInstanceModule.java:72)
2024-11-11T19:11:04,461  INFO Injector:87   --> source: org.matsim.facilities.ActivityFacilities org.matsim.core.scenario.ScenarioByInstanceModule.provideActivityFacilities(org.matsim.api.core.v01.Scenario)
2024-11-11T19:11:04,461  INFO Injector:89   --> scope: Scopes.NO_SCOPE
2024-11-11T19:11:04,461  INFO Injector:94   ==full==> ProviderInstanceBinding{key=Key[type=org.matsim.facilities.ActivityFacilities, annotation=[none]], source=org.matsim.facilities.ActivityFacilities org.matsim.core.scenario.ScenarioByInstanceModule.provideActivityFacilities(org.matsim.api.core.v01.Scenario), scope=Scopes.NO_SCOPE, provider=@Provides org.matsim.core.scenario.ScenarioByInstanceModule.provideActivityFacilities(ScenarioByInstanceModule.java:72)}
2024-11-11T19:11:04,461  INFO Injector:96 
2024-11-11T19:11:04,461  INFO Injector:85 org.matsim.households.Households 
2024-11-11T19:11:04,462  INFO Injector:86   --> provider: @Provides org.matsim.core.scenario.ScenarioByInstanceModule.provideHouseholds(ScenarioByInstanceModule.java:77)
2024-11-11T19:11:04,462  INFO Injector:87   --> source: org.matsim.households.Households org.matsim.core.scenario.ScenarioByInstanceModule.provideHouseholds(org.matsim.api.core.v01.Scenario)
2024-11-11T19:11:04,462  INFO Injector:89   --> scope: Scopes.NO_SCOPE
2024-11-11T19:11:04,462  INFO Injector:94   ==full==> ProviderInstanceBinding{key=Key[type=org.matsim.households.Households, annotation=[none]], source=org.matsim.households.Households org.matsim.core.scenario.ScenarioByInstanceModule.provideHouseholds(org.matsim.api.core.v01.Scenario), scope=Scopes.NO_SCOPE, provider=@Provides org.matsim.core.scenario.ScenarioByInstanceModule.provideHouseholds(ScenarioByInstanceModule.java:77)}
2024-11-11T19:11:04,462  INFO Injector:96 
2024-11-11T19:11:04,462  INFO Injector:85 org.matsim.lanes.Lanes 
2024-11-11T19:11:04,462  INFO Injector:86   --> provider: @Provides org.matsim.core.scenario.ScenarioByInstanceModule.provideLanes(ScenarioByInstanceModule.java:87)
2024-11-11T19:11:04,462  INFO Injector:87   --> source: org.matsim.lanes.Lanes org.matsim.core.scenario.ScenarioByInstanceModule.provideLanes(org.matsim.api.core.v01.Scenario)
2024-11-11T19:11:04,462  INFO Injector:89   --> scope: Scopes.NO_SCOPE
2024-11-11T19:11:04,462  INFO Injector:94   ==full==> ProviderInstanceBinding{key=Key[type=org.matsim.lanes.Lanes, annotation=[none]], source=org.matsim.lanes.Lanes org.matsim.core.scenario.ScenarioByInstanceModule.provideLanes(org.matsim.api.core.v01.Scenario), scope=Scopes.NO_SCOPE, provider=@Provides org.matsim.core.scenario.ScenarioByInstanceModule.provideLanes(ScenarioByInstanceModule.java:87)}
2024-11-11T19:11:04,462  INFO Injector:96 
2024-11-11T19:11:04,462  INFO Injector:85 org.matsim.api.core.v01.network.Network 
2024-11-11T19:11:04,462  INFO Injector:86   --> provider: @Provides org.matsim.core.scenario.ScenarioByInstanceModule.provideNetwork(ScenarioByInstanceModule.java:60)
2024-11-11T19:11:04,462  INFO Injector:87   --> source: org.matsim.api.core.v01.network.Network org.matsim.core.scenario.ScenarioByInstanceModule.provideNetwork(org.matsim.api.core.v01.Scenario)
2024-11-11T19:11:04,462  INFO Injector:89   --> scope: Scopes.NO_SCOPE
2024-11-11T19:11:04,462  INFO Injector:94   ==full==> ProviderInstanceBinding{key=Key[type=org.matsim.api.core.v01.network.Network, annotation=[none]], source=org.matsim.api.core.v01.network.Network org.matsim.core.scenario.ScenarioByInstanceModule.provideNetwork(org.matsim.api.core.v01.Scenario), scope=Scopes.NO_SCOPE, provider=@Provides org.matsim.core.scenario.ScenarioByInstanceModule.provideNetwork(ScenarioByInstanceModule.java:60)}
2024-11-11T19:11:04,462  INFO Injector:96 
2024-11-11T19:11:04,462  INFO Injector:85 org.matsim.api.core.v01.population.Population 
2024-11-11T19:11:04,463  INFO Injector:86   --> provider: @Provides org.matsim.core.scenario.ScenarioByInstanceModule.providePopulation(ScenarioByInstanceModule.java:64)
2024-11-11T19:11:04,463  INFO Injector:87   --> source: org.matsim.api.core.v01.population.Population org.matsim.core.scenario.ScenarioByInstanceModule.providePopulation(org.matsim.api.core.v01.Scenario)
2024-11-11T19:11:04,463  INFO Injector:89   --> scope: Scopes.NO_SCOPE
2024-11-11T19:11:04,463  INFO Injector:94   ==full==> ProviderInstanceBinding{key=Key[type=org.matsim.api.core.v01.population.Population, annotation=[none]], source=org.matsim.api.core.v01.population.Population org.matsim.core.scenario.ScenarioByInstanceModule.providePopulation(org.matsim.api.core.v01.Scenario), scope=Scopes.NO_SCOPE, provider=@Provides org.matsim.core.scenario.ScenarioByInstanceModule.providePopulation(ScenarioByInstanceModule.java:64)}
2024-11-11T19:11:04,463  INFO Injector:96 
2024-11-11T19:11:04,463  INFO Injector:85 org.matsim.api.core.v01.population.PopulationFactory 
2024-11-11T19:11:04,463  INFO Injector:86   --> provider: @Provides org.matsim.core.scenario.ScenarioByInstanceModule.providePopulationFactory(ScenarioByInstanceModule.java:68)
2024-11-11T19:11:04,463  INFO Injector:87   --> source: org.matsim.api.core.v01.population.PopulationFactory org.matsim.core.scenario.ScenarioByInstanceModule.providePopulationFactory(org.matsim.api.core.v01.population.Population)
2024-11-11T19:11:04,463  INFO Injector:89   --> scope: Scopes.NO_SCOPE
2024-11-11T19:11:04,463  INFO Injector:94   ==full==> ProviderInstanceBinding{key=Key[type=org.matsim.api.core.v01.population.PopulationFactory, annotation=[none]], source=org.matsim.api.core.v01.population.PopulationFactory org.matsim.core.scenario.ScenarioByInstanceModule.providePopulationFactory(org.matsim.api.core.v01.population.Population), scope=Scopes.NO_SCOPE, provider=@Provides org.matsim.core.scenario.ScenarioByInstanceModule.providePopulationFactory(ScenarioByInstanceModule.java:68)}
2024-11-11T19:11:04,463  INFO Injector:96 
2024-11-11T19:11:04,463  INFO Injector:85 org.matsim.vehicles.Vehicles 
2024-11-11T19:11:04,463  INFO Injector:86   --> provider: @Provides org.matsim.core.scenario.ScenarioByInstanceModule.provideVehicles(ScenarioByInstanceModule.java:82)
2024-11-11T19:11:04,463  INFO Injector:87   --> source: org.matsim.vehicles.Vehicles org.matsim.core.scenario.ScenarioByInstanceModule.provideVehicles(org.matsim.api.core.v01.Scenario)
2024-11-11T19:11:04,464  INFO Injector:89   --> scope: Scopes.NO_SCOPE
2024-11-11T19:11:04,464  INFO Injector:94   ==full==> ProviderInstanceBinding{key=Key[type=org.matsim.vehicles.Vehicles, annotation=[none]], source=org.matsim.vehicles.Vehicles org.matsim.core.scenario.ScenarioByInstanceModule.provideVehicles(org.matsim.api.core.v01.Scenario), scope=Scopes.NO_SCOPE, provider=@Provides org.matsim.core.scenario.ScenarioByInstanceModule.provideVehicles(ScenarioByInstanceModule.java:82)}
2024-11-11T19:11:04,464  INFO Injector:96 
2024-11-11T19:11:04,464  INFO Injector:85 org.matsim.core.controler.ControlerI 
2024-11-11T19:11:04,464  INFO Injector:86   --> provider: FactoryProxy{key=Key[type=org.matsim.core.controler.ControlerI, annotation=[none]], provider=com.google.inject.internal.ConstructorBindingImpl$Factory@492c3eef}[Scopes.SINGLETON]
2024-11-11T19:11:04,464  INFO Injector:87   --> source: org.matsim.core.controler.NewControlerModule.install(NewControlerModule.java:30)
2024-11-11T19:11:04,464  INFO Injector:89   --> scope: eager singleton
2024-11-11T19:11:04,464  INFO Injector:92   --> target: Key[type=org.matsim.core.controler.NewControler, annotation=[none]]
2024-11-11T19:11:04,464  INFO Injector:94   ==full==> LinkedKeyBinding{key=Key[type=org.matsim.core.controler.ControlerI, annotation=[none]], source=org.matsim.core.controler.NewControlerModule.install(NewControlerModule.java:30), scope=eager singleton, target=Key[type=org.matsim.core.controler.NewControler, annotation=[none]]}
2024-11-11T19:11:04,464  INFO Injector:96 
2024-11-11T19:11:04,464  INFO Injector:85 org.matsim.core.controler.ControlerListenerManager 
2024-11-11T19:11:04,464  INFO Injector:86   --> provider: FactoryProxy{key=Key[type=org.matsim.core.controler.ControlerListenerManager, annotation=[none]], provider=com.google.inject.internal.ConstructorBindingImpl$Factory@3b0ffb49[Scopes.SINGLETON]}
2024-11-11T19:11:04,464  INFO Injector:87   --> source: org.matsim.core.controler.NewControlerModule.install(NewControlerModule.java:32)
2024-11-11T19:11:04,465  INFO Injector:89   --> scope: Scopes.NO_SCOPE
2024-11-11T19:11:04,465  INFO Injector:92   --> target: Key[type=org.matsim.core.controler.ControlerListenerManagerImpl, annotation=[none]]
2024-11-11T19:11:04,465  INFO Injector:94   ==full==> LinkedKeyBinding{key=Key[type=org.matsim.core.controler.ControlerListenerManager, annotation=[none]], source=org.matsim.core.controler.NewControlerModule.install(NewControlerModule.java:32), scope=Scopes.NO_SCOPE, target=Key[type=org.matsim.core.controler.ControlerListenerManagerImpl, annotation=[none]]}
2024-11-11T19:11:04,465  INFO Injector:96 
2024-11-11T19:11:04,465  INFO Injector:85 org.matsim.core.controler.TerminationCriterion 
2024-11-11T19:11:04,465  INFO Injector:86   --> provider: FactoryProxy{key=Key[type=org.matsim.core.controler.TerminationCriterion, annotation=[none]], provider=com.google.inject.internal.ConstructorBindingImpl$Factory@7017d5a4}
2024-11-11T19:11:04,465  INFO Injector:87   --> source: org.matsim.core.controler.NewControlerModule.install(NewControlerModule.java:36)
2024-11-11T19:11:04,465  INFO Injector:89   --> scope: Scopes.NO_SCOPE
2024-11-11T19:11:04,465  INFO Injector:92   --> target: Key[type=org.matsim.core.controler.TerminateAtFixedIterationNumber, annotation=[none]]
2024-11-11T19:11:04,465  INFO Injector:94   ==full==> LinkedKeyBinding{key=Key[type=org.matsim.core.controler.TerminationCriterion, annotation=[none]], source=org.matsim.core.controler.NewControlerModule.install(NewControlerModule.java:36), scope=Scopes.NO_SCOPE, target=Key[type=org.matsim.core.controler.TerminateAtFixedIterationNumber, annotation=[none]]}
2024-11-11T19:11:04,465  INFO Injector:96 
2024-11-11T19:11:04,465  INFO Injector:85 org.matsim.core.controler.MatsimServices 
2024-11-11T19:11:04,465  INFO Injector:86   --> provider: FactoryProxy{key=Key[type=org.matsim.core.controler.MatsimServices, annotation=[none]], provider=com.google.inject.internal.ConstructorBindingImpl$Factory@6bf11a9e}
2024-11-11T19:11:04,465  INFO Injector:87   --> source: org.matsim.core.controler.NewControlerModule.install(NewControlerModule.java:37)
2024-11-11T19:11:04,465  INFO Injector:89   --> scope: Scopes.NO_SCOPE
2024-11-11T19:11:04,465  INFO Injector:92   --> target: Key[type=org.matsim.core.controler.MatsimServicesImpl, annotation=[none]]
2024-11-11T19:11:04,465  INFO Injector:94   ==full==> LinkedKeyBinding{key=Key[type=org.matsim.core.controler.MatsimServices, annotation=[none]], source=org.matsim.core.controler.NewControlerModule.install(NewControlerModule.java:37), scope=Scopes.NO_SCOPE, target=Key[type=org.matsim.core.controler.MatsimServicesImpl, annotation=[none]]}
2024-11-11T19:11:04,465  INFO Injector:96 
2024-11-11T19:11:04,466  INFO Injector:85 org.matsim.core.controler.IterationCounter 
2024-11-11T19:11:04,466  INFO Injector:86   --> provider: FactoryProxy{key=Key[type=org.matsim.core.controler.IterationCounter, annotation=[none]], provider=com.google.inject.internal.ConstructorBindingImpl$Factory@6bf11a9e}
2024-11-11T19:11:04,466  INFO Injector:87   --> source: org.matsim.core.controler.NewControlerModule.install(NewControlerModule.java:39)
2024-11-11T19:11:04,466  INFO Injector:89   --> scope: Scopes.NO_SCOPE
2024-11-11T19:11:04,466  INFO Injector:92   --> target: Key[type=org.matsim.core.controler.MatsimServicesImpl, annotation=[none]]
2024-11-11T19:11:04,466  INFO Injector:94   ==full==> LinkedKeyBinding{key=Key[type=org.matsim.core.controler.IterationCounter, annotation=[none]], source=org.matsim.core.controler.NewControlerModule.install(NewControlerModule.java:39), scope=Scopes.NO_SCOPE, target=Key[type=org.matsim.core.controler.MatsimServicesImpl, annotation=[none]]}
2024-11-11T19:11:04,466  INFO Injector:96 
2024-11-11T19:11:04,466  INFO Injector:85 org.matsim.core.controler.PrepareForSim 
2024-11-11T19:11:04,466  INFO Injector:86   --> provider: FactoryProxy{key=Key[type=org.matsim.core.controler.PrepareForSim, annotation=[none]], provider=com.google.inject.internal.ConstructorBindingImpl$Factory@43028a49}
2024-11-11T19:11:04,466  INFO Injector:87   --> source: org.matsim.core.controler.NewControlerModule.install(NewControlerModule.java:43)
2024-11-11T19:11:04,466  INFO Injector:89   --> scope: Scopes.NO_SCOPE
2024-11-11T19:11:04,466  INFO Injector:92   --> target: Key[type=org.matsim.core.controler.PrepareForSimImpl, annotation=[none]]
2024-11-11T19:11:04,466  INFO Injector:94   ==full==> LinkedKeyBinding{key=Key[type=org.matsim.core.controler.PrepareForSim, annotation=[none]], source=org.matsim.core.controler.NewControlerModule.install(NewControlerModule.java:43), scope=Scopes.NO_SCOPE, target=Key[type=org.matsim.core.controler.PrepareForSimImpl, annotation=[none]]}
2024-11-11T19:11:04,466  INFO Injector:96 
2024-11-11T19:11:04,466  INFO Injector:85 org.matsim.core.controler.PrepareForMobsim 
2024-11-11T19:11:04,466  INFO Injector:86   --> provider: FactoryProxy{key=Key[type=org.matsim.core.controler.PrepareForMobsim, annotation=[none]], provider=com.google.inject.internal.ConstructorBindingImpl$Factory@713e4d3}
2024-11-11T19:11:04,466  INFO Injector:87   --> source: org.matsim.core.controler.NewControlerModule.install(NewControlerModule.java:44)
2024-11-11T19:11:04,466  INFO Injector:89   --> scope: Scopes.NO_SCOPE
2024-11-11T19:11:04,466  INFO Injector:92   --> target: Key[type=org.matsim.core.controler.PrepareForMobsimImpl, annotation=[none]]
2024-11-11T19:11:04,466  INFO Injector:94   ==full==> LinkedKeyBinding{key=Key[type=org.matsim.core.controler.PrepareForMobsim, annotation=[none]], source=org.matsim.core.controler.NewControlerModule.install(NewControlerModule.java:44), scope=Scopes.NO_SCOPE, target=Key[type=org.matsim.core.controler.PrepareForMobsimImpl, annotation=[none]]}
2024-11-11T19:11:04,466  INFO Injector:96 
2024-11-11T19:11:04,466  INFO Injector:85 org.matsim.core.controler.corelisteners.PlansScoring 
2024-11-11T19:11:04,466  INFO Injector:86   --> provider: FactoryProxy{key=Key[type=org.matsim.core.controler.corelisteners.PlansScoring, annotation=[none]], provider=com.google.inject.internal.ConstructorBindingImpl$Factory@49e7bb60[Scopes.SINGLETON]}
2024-11-11T19:11:04,466  INFO Injector:87   --> source: org.matsim.core.scoring.PlansScoringModule.install(PlansScoringModule.java:33)
2024-11-11T19:11:04,466  INFO Injector:89   --> scope: Scopes.NO_SCOPE
2024-11-11T19:11:04,466  INFO Injector:92   --> target: Key[type=org.matsim.core.scoring.PlansScoringImpl, annotation=[none]]
2024-11-11T19:11:04,467  INFO Injector:94   ==full==> LinkedKeyBinding{key=Key[type=org.matsim.core.controler.corelisteners.PlansScoring, annotation=[none]], source=org.matsim.core.scoring.PlansScoringModule.install(PlansScoringModule.java:33), scope=Scopes.NO_SCOPE, target=Key[type=org.matsim.core.scoring.PlansScoringImpl, annotation=[none]]}
2024-11-11T19:11:04,467  INFO Injector:96 
2024-11-11T19:11:04,467  INFO Injector:85 org.matsim.core.scoring.ExperiencedPlansService 
2024-11-11T19:11:04,467  INFO Injector:86   --> provider: FactoryProxy{key=Key[type=org.matsim.core.scoring.ExperiencedPlansService, annotation=[none]], provider=com.google.inject.internal.ConstructorBindingImpl$Factory@2a216d28}[Scopes.SINGLETON]
2024-11-11T19:11:04,467  INFO Injector:87   --> source: org.matsim.core.scoring.PlansScoringModule.install(PlansScoringModule.java:34)
2024-11-11T19:11:04,467  INFO Injector:89   --> scope: eager singleton
2024-11-11T19:11:04,467  INFO Injector:92   --> target: Key[type=org.matsim.core.scoring.ExperiencedPlansServiceImpl, annotation=[none]]
2024-11-11T19:11:04,467  INFO Injector:94   ==full==> LinkedKeyBinding{key=Key[type=org.matsim.core.scoring.ExperiencedPlansService, annotation=[none]], source=org.matsim.core.scoring.PlansScoringModule.install(PlansScoringModule.java:34), scope=eager singleton, target=Key[type=org.matsim.core.scoring.ExperiencedPlansServiceImpl, annotation=[none]]}
2024-11-11T19:11:04,467  INFO Injector:96 
2024-11-11T19:11:04,467  INFO Injector:85 org.matsim.core.scoring.NewScoreAssigner 
2024-11-11T19:11:04,467  INFO Injector:86   --> provider: FactoryProxy{key=Key[type=org.matsim.core.scoring.NewScoreAssigner, annotation=[none]], provider=com.google.inject.internal.ConstructorBindingImpl$Factory@7d26fae7}[Scopes.SINGLETON]
2024-11-11T19:11:04,467  INFO Injector:87   --> source: org.matsim.core.scoring.PlansScoringModule.install(PlansScoringModule.java:35)
2024-11-11T19:11:04,467  INFO Injector:89   --> scope: eager singleton
2024-11-11T19:11:04,467  INFO Injector:92   --> target: Key[type=org.matsim.core.scoring.NewScoreAssignerImpl, annotation=[none]]
2024-11-11T19:11:04,467  INFO Injector:94   ==full==> LinkedKeyBinding{key=Key[type=org.matsim.core.scoring.NewScoreAssigner, annotation=[none]], source=org.matsim.core.scoring.PlansScoringModule.install(PlansScoringModule.java:35), scope=eager singleton, target=Key[type=org.matsim.core.scoring.NewScoreAssignerImpl, annotation=[none]]}
2024-11-11T19:11:04,467  INFO Injector:96 
2024-11-11T19:11:04,467  INFO Injector:85 org.matsim.core.controler.corelisteners.PlansReplanning 
2024-11-11T19:11:04,467  INFO Injector:86   --> provider: FactoryProxy{key=Key[type=org.matsim.core.controler.corelisteners.PlansReplanning, annotation=[none]], provider=com.google.inject.internal.ConstructorBindingImpl$Factory@650bbcec[Scopes.SINGLETON]}
2024-11-11T19:11:04,467  INFO Injector:87   --> source: org.matsim.core.controler.corelisteners.ControlerDefaultCoreListenersModule.install(ControlerDefaultCoreListenersModule.java:38)
2024-11-11T19:11:04,467  INFO Injector:89   --> scope: Scopes.NO_SCOPE
2024-11-11T19:11:04,467  INFO Injector:92   --> target: Key[type=org.matsim.core.controler.corelisteners.PlansReplanningImpl, annotation=[none]]
2024-11-11T19:11:04,467  INFO Injector:94   ==full==> LinkedKeyBinding{key=Key[type=org.matsim.core.controler.corelisteners.PlansReplanning, annotation=[none]], source=org.matsim.core.controler.corelisteners.ControlerDefaultCoreListenersModule.install(ControlerDefaultCoreListenersModule.java:38), scope=Scopes.NO_SCOPE, target=Key[type=org.matsim.core.controler.corelisteners.PlansReplanningImpl, annotation=[none]]}
2024-11-11T19:11:04,467  INFO Injector:96 
2024-11-11T19:11:04,467  INFO Injector:85 org.matsim.core.controler.corelisteners.PlansDumping 
2024-11-11T19:11:04,467  INFO Injector:86   --> provider: FactoryProxy{key=Key[type=org.matsim.core.controler.corelisteners.PlansDumping, annotation=[none]], provider=com.google.inject.internal.ConstructorBindingImpl$Factory@11c33796[Scopes.SINGLETON]}
2024-11-11T19:11:04,467  INFO Injector:87   --> source: org.matsim.core.controler.corelisteners.ControlerDefaultCoreListenersModule.install(ControlerDefaultCoreListenersModule.java:39)
2024-11-11T19:11:04,467  INFO Injector:89   --> scope: Scopes.NO_SCOPE
2024-11-11T19:11:04,468  INFO Injector:92   --> target: Key[type=org.matsim.core.controler.corelisteners.PlansDumpingImpl, annotation=[none]]
2024-11-11T19:11:04,468  INFO Injector:94   ==full==> LinkedKeyBinding{key=Key[type=org.matsim.core.controler.corelisteners.PlansDumping, annotation=[none]], source=org.matsim.core.controler.corelisteners.ControlerDefaultCoreListenersModule.install(ControlerDefaultCoreListenersModule.java:39), scope=Scopes.NO_SCOPE, target=Key[type=org.matsim.core.controler.corelisteners.PlansDumpingImpl, annotation=[none]]}
2024-11-11T19:11:04,468  INFO Injector:96 
2024-11-11T19:11:04,468  INFO Injector:85 org.matsim.core.controler.corelisteners.EventsHandling 
2024-11-11T19:11:04,468  INFO Injector:86   --> provider: FactoryProxy{key=Key[type=org.matsim.core.controler.corelisteners.EventsHandling, annotation=[none]], provider=com.google.inject.internal.ConstructorBindingImpl$Factory@30aa40ab[Scopes.SINGLETON]}
2024-11-11T19:11:04,468  INFO Injector:87   --> source: org.matsim.core.controler.corelisteners.ControlerDefaultCoreListenersModule.install(ControlerDefaultCoreListenersModule.java:40)
2024-11-11T19:11:04,468  INFO Injector:89   --> scope: Scopes.NO_SCOPE
2024-11-11T19:11:04,468  INFO Injector:92   --> target: Key[type=org.matsim.core.controler.corelisteners.EventsHandlingImpl, annotation=[none]]
2024-11-11T19:11:04,468  INFO Injector:94   ==full==> LinkedKeyBinding{key=Key[type=org.matsim.core.controler.corelisteners.EventsHandling, annotation=[none]], source=org.matsim.core.controler.corelisteners.ControlerDefaultCoreListenersModule.install(ControlerDefaultCoreListenersModule.java:40), scope=Scopes.NO_SCOPE, target=Key[type=org.matsim.core.controler.corelisteners.EventsHandlingImpl, annotation=[none]]}
2024-11-11T19:11:04,468  INFO Injector:96 
2024-11-11T19:11:04,468  INFO Injector:85 org.matsim.core.controler.corelisteners.DumpDataAtEnd 
2024-11-11T19:11:04,468  INFO Injector:86   --> provider: FactoryProxy{key=Key[type=org.matsim.core.controler.corelisteners.DumpDataAtEnd, annotation=[none]], provider=com.google.inject.internal.ConstructorBindingImpl$Factory@7a11659b[Scopes.SINGLETON]}
2024-11-11T19:11:04,468  INFO Injector:87   --> source: org.matsim.core.controler.corelisteners.ControlerDefaultCoreListenersModule.install(ControlerDefaultCoreListenersModule.java:41)
2024-11-11T19:11:04,468  INFO Injector:89   --> scope: Scopes.NO_SCOPE
2024-11-11T19:11:04,468  INFO Injector:92   --> target: Key[type=org.matsim.core.controler.corelisteners.DumpDataAtEndImpl, annotation=[none]]
2024-11-11T19:11:04,468  INFO Injector:94   ==full==> LinkedKeyBinding{key=Key[type=org.matsim.core.controler.corelisteners.DumpDataAtEnd, annotation=[none]], source=org.matsim.core.controler.corelisteners.ControlerDefaultCoreListenersModule.install(ControlerDefaultCoreListenersModule.java:41), scope=Scopes.NO_SCOPE, target=Key[type=org.matsim.core.controler.corelisteners.DumpDataAtEndImpl, annotation=[none]]}
2024-11-11T19:11:04,468  INFO Injector:96 
2024-11-11T19:11:04,468  INFO Injector:85 org.matsim.core.api.experimental.events.EventsManager 
2024-11-11T19:11:04,468  INFO Injector:86   --> provider: FactoryProxy{key=Key[type=org.matsim.core.api.experimental.events.EventsManager, annotation=[none]], provider=com.google.inject.internal.ConstructorBindingImpl$Factory@42c54ae9}[Scopes.SINGLETON]
2024-11-11T19:11:04,468  INFO Injector:87   --> source: org.matsim.core.events.EventsManagerModule.install(EventsManagerModule.java:46)
2024-11-11T19:11:04,468  INFO Injector:89   --> scope: Scopes.SINGLETON
2024-11-11T19:11:04,468  INFO Injector:92   --> target: Key[type=org.matsim.core.events.SimStepParallelEventsManagerImpl, annotation=[none]]
2024-11-11T19:11:04,468  INFO Injector:94   ==full==> LinkedKeyBinding{key=Key[type=org.matsim.core.api.experimental.events.EventsManager, annotation=[none]], source=org.matsim.core.events.EventsManagerModule.install(EventsManagerModule.java:46), scope=Scopes.SINGLETON, target=Key[type=org.matsim.core.events.SimStepParallelEventsManagerImpl, annotation=[none]]}
2024-11-11T19:11:04,468  INFO Injector:96 
2024-11-11T19:11:04,468  INFO Injector:85 org.matsim.core.mobsim.qsim.components.QSimComponentsConfig 
2024-11-11T19:11:04,469  INFO Injector:86   --> provider: @Provides org.matsim.core.mobsim.qsim.components.QSimComponentsModule.provideDefaultQSimComponentsConfig(QSimComponentsModule.java:34)[Scopes.SINGLETON]
2024-11-11T19:11:04,469  INFO Injector:87   --> source: public org.matsim.core.mobsim.qsim.components.QSimComponentsConfig org.matsim.core.mobsim.qsim.components.QSimComponentsModule.provideDefaultQSimComponentsConfig(org.matsim.core.config.Config)
2024-11-11T19:11:04,469  INFO Injector:89   --> scope: Scopes.SINGLETON
2024-11-11T19:11:04,469  INFO Injector:94   ==full==> ProviderInstanceBinding{key=Key[type=org.matsim.core.mobsim.qsim.components.QSimComponentsConfig, annotation=[none]], source=public org.matsim.core.mobsim.qsim.components.QSimComponentsConfig org.matsim.core.mobsim.qsim.components.QSimComponentsModule.provideDefaultQSimComponentsConfig(org.matsim.core.config.Config), scope=Scopes.SINGLETON, provider=@Provides org.matsim.core.mobsim.qsim.components.QSimComponentsModule.provideDefaultQSimComponentsConfig(QSimComponentsModule.java:34)}
2024-11-11T19:11:04,469  INFO Injector:96 
2024-11-11T19:11:04,469  INFO Injector:85 org.matsim.core.mobsim.qsim.AbstractQSimModule @com.google.inject.internal.Element(setName=,uniqueId=107, type=MULTIBINDER, keyType=)
2024-11-11T19:11:04,469  INFO Injector:86   --> provider: ConstantFactory{value=org.matsim.core.mobsim.qsim.messagequeueengine.MessageQueueModule@6eb38e22}[Scopes.SINGLETON]
2024-11-11T19:11:04,470  INFO Injector:87   --> source: java.base/java.util.Arrays$ArrayList.forEach(Arrays.java:4305)
2024-11-11T19:11:04,470  INFO Injector:89   --> scope: eager singleton
2024-11-11T19:11:04,470  INFO Injector:94   ==full==> InstanceBinding{key=Key[type=org.matsim.core.mobsim.qsim.AbstractQSimModule, annotation=@com.google.inject.internal.Element(setName=,uniqueId=107, type=MULTIBINDER, keyType=)], source=java.base/java.util.Arrays$ArrayList.forEach(Arrays.java:4305), instance=org.matsim.core.mobsim.qsim.messagequeueengine.MessageQueueModule@6eb38e22}
2024-11-11T19:11:04,470  INFO Injector:96 
2024-11-11T19:11:04,470  INFO Injector:85 org.matsim.core.mobsim.qsim.AbstractQSimModule @com.google.inject.internal.Element(setName=,uniqueId=108, type=MULTIBINDER, keyType=)
2024-11-11T19:11:04,470  INFO Injector:86   --> provider: ConstantFactory{value=org.matsim.core.mobsim.qsim.ActivityEngineModule@1f8aa25a}[Scopes.SINGLETON]
2024-11-11T19:11:04,470  INFO Injector:87   --> source: java.base/java.util.Arrays$ArrayList.forEach(Arrays.java:4305)
2024-11-11T19:11:04,470  INFO Injector:89   --> scope: eager singleton
2024-11-11T19:11:04,470  INFO Injector:94   ==full==> InstanceBinding{key=Key[type=org.matsim.core.mobsim.qsim.AbstractQSimModule, annotation=@com.google.inject.internal.Element(setName=,uniqueId=108, type=MULTIBINDER, keyType=)], source=java.base/java.util.Arrays$ArrayList.forEach(Arrays.java:4305), instance=org.matsim.core.mobsim.qsim.ActivityEngineModule@1f8aa25a}
2024-11-11T19:11:04,470  INFO Injector:96 
2024-11-11T19:11:04,470  INFO Injector:85 org.matsim.core.mobsim.qsim.AbstractQSimModule @com.google.inject.internal.Element(setName=,uniqueId=109, type=MULTIBINDER, keyType=)
2024-11-11T19:11:04,470  INFO Injector:86   --> provider: ConstantFactory{value=org.matsim.core.mobsim.qsim.qnetsimengine.QNetsimEngineModule@65fe4550}[Scopes.SINGLETON]
2024-11-11T19:11:04,470  INFO Injector:87   --> source: java.base/java.util.Arrays$ArrayList.forEach(Arrays.java:4305)
2024-11-11T19:11:04,471  INFO Injector:89   --> scope: eager singleton
2024-11-11T19:11:04,471  INFO Injector:94   ==full==> InstanceBinding{key=Key[type=org.matsim.core.mobsim.qsim.AbstractQSimModule, annotation=@com.google.inject.internal.Element(setName=,uniqueId=109, type=MULTIBINDER, keyType=)], source=java.base/java.util.Arrays$ArrayList.forEach(Arrays.java:4305), instance=org.matsim.core.mobsim.qsim.qnetsimengine.QNetsimEngineModule@65fe4550}
2024-11-11T19:11:04,471  INFO Injector:96 
2024-11-11T19:11:04,471  INFO Injector:85 org.matsim.core.mobsim.qsim.AbstractQSimModule @com.google.inject.internal.Element(setName=,uniqueId=110, type=MULTIBINDER, keyType=)
2024-11-11T19:11:04,471  INFO Injector:86   --> provider: ConstantFactory{value=org.matsim.core.mobsim.qsim.TeleportationModule@25764276}[Scopes.SINGLETON]
2024-11-11T19:11:04,471  INFO Injector:87   --> source: java.base/java.util.Arrays$ArrayList.forEach(Arrays.java:4305)
2024-11-11T19:11:04,471  INFO Injector:89   --> scope: eager singleton
2024-11-11T19:11:04,471  INFO Injector:94   ==full==> InstanceBinding{key=Key[type=org.matsim.core.mobsim.qsim.AbstractQSimModule, annotation=@com.google.inject.internal.Element(setName=,uniqueId=110, type=MULTIBINDER, keyType=)], source=java.base/java.util.Arrays$ArrayList.forEach(Arrays.java:4305), instance=org.matsim.core.mobsim.qsim.TeleportationModule@25764276}
2024-11-11T19:11:04,471  INFO Injector:96 
2024-11-11T19:11:04,471  INFO Injector:85 org.matsim.core.mobsim.qsim.AbstractQSimModule @com.google.inject.internal.Element(setName=,uniqueId=111, type=MULTIBINDER, keyType=)
2024-11-11T19:11:04,471  INFO Injector:86   --> provider: ConstantFactory{value=org.matsim.core.mobsim.qsim.PopulationModule@57c61a64}[Scopes.SINGLETON]
2024-11-11T19:11:04,471  INFO Injector:87   --> source: java.base/java.util.Arrays$ArrayList.forEach(Arrays.java:4305)
2024-11-11T19:11:04,471  INFO Injector:89   --> scope: eager singleton
2024-11-11T19:11:04,471  INFO Injector:94   ==full==> InstanceBinding{key=Key[type=org.matsim.core.mobsim.qsim.AbstractQSimModule, annotation=@com.google.inject.internal.Element(setName=,uniqueId=111, type=MULTIBINDER, keyType=)], source=java.base/java.util.Arrays$ArrayList.forEach(Arrays.java:4305), instance=org.matsim.core.mobsim.qsim.PopulationModule@57c61a64}
2024-11-11T19:11:04,471  INFO Injector:96 
2024-11-11T19:11:04,471  INFO Injector:85 org.matsim.core.mobsim.qsim.AbstractQSimModule @com.google.inject.internal.Element(setName=,uniqueId=112, type=MULTIBINDER, keyType=)
2024-11-11T19:11:04,471  INFO Injector:86   --> provider: ConstantFactory{value=org.matsim.core.mobsim.qsim.changeeventsengine.NetworkChangeEventsModule@1d94fab4}[Scopes.SINGLETON]
2024-11-11T19:11:04,471  INFO Injector:87   --> source: java.base/java.util.Arrays$ArrayList.forEach(Arrays.java:4305)
2024-11-11T19:11:04,471  INFO Injector:89   --> scope: eager singleton
2024-11-11T19:11:04,471  INFO Injector:94   ==full==> InstanceBinding{key=Key[type=org.matsim.core.mobsim.qsim.AbstractQSimModule, annotation=@com.google.inject.internal.Element(setName=,uniqueId=112, type=MULTIBINDER, keyType=)], source=java.base/java.util.Arrays$ArrayList.forEach(Arrays.java:4305), instance=org.matsim.core.mobsim.qsim.changeeventsengine.NetworkChangeEventsModule@1d94fab4}
2024-11-11T19:11:04,471  INFO Injector:96 
2024-11-11T19:11:04,472  INFO Injector:85 org.matsim.core.mobsim.qsim.AbstractQSimModule @com.google.inject.internal.Element(setName=,uniqueId=113, type=MULTIBINDER, keyType=)
2024-11-11T19:11:04,472  INFO Injector:86   --> provider: ConstantFactory{value=org.matsim.core.mobsim.qsim.pt.TransitEngineModule@a57f893}[Scopes.SINGLETON]
2024-11-11T19:11:04,472  INFO Injector:87   --> source: java.base/java.util.Arrays$ArrayList.forEach(Arrays.java:4305)
2024-11-11T19:11:04,472  INFO Injector:89   --> scope: eager singleton
2024-11-11T19:11:04,472  INFO Injector:94   ==full==> InstanceBinding{key=Key[type=org.matsim.core.mobsim.qsim.AbstractQSimModule, annotation=@com.google.inject.internal.Element(setName=,uniqueId=113, type=MULTIBINDER, keyType=)], source=java.base/java.util.Arrays$ArrayList.forEach(Arrays.java:4305), instance=org.matsim.core.mobsim.qsim.pt.TransitEngineModule@a57f893}
2024-11-11T19:11:04,472  INFO Injector:96 
2024-11-11T19:11:04,472  INFO Injector:85 org.matsim.core.mobsim.framework.Mobsim 
2024-11-11T19:11:04,472  INFO Injector:86   --> provider: Key[type=org.matsim.core.mobsim.qsim.QSimProvider, annotation=[none]]
2024-11-11T19:11:04,472  INFO Injector:87   --> source: org.matsim.core.mobsim.qsim.QSimModule.install(QSimModule.java:100)
2024-11-11T19:11:04,472  INFO Injector:89   --> scope: Scopes.NO_SCOPE
2024-11-11T19:11:04,472  INFO Injector:94   ==full==> ProviderKeyBinding{key=Key[type=org.matsim.core.mobsim.framework.Mobsim, annotation=[none]], source=org.matsim.core.mobsim.qsim.QSimModule.install(QSimModule.java:100), scope=Scopes.NO_SCOPE, provider=Key[type=org.matsim.core.mobsim.qsim.QSimProvider, annotation=[none]]}
2024-11-11T19:11:04,472  INFO Injector:96 
2024-11-11T19:11:04,472  INFO Injector:85 org.matsim.core.controler.listener.ControlerListener @com.google.inject.internal.Element(setName=,uniqueId=114, type=MULTIBINDER, keyType=)
2024-11-11T19:11:04,472  INFO Injector:86   --> provider: FactoryProxy{key=Key[type=org.matsim.core.controler.listener.ControlerListener, annotation=@com.google.inject.internal.Element(setName=,uniqueId=114, type=MULTIBINDER, keyType=)], provider=com.google.inject.internal.ConstructorBindingImpl$Factory@5933817c[Scopes.SINGLETON]}
2024-11-11T19:11:04,472  INFO Injector:87   --> source: org.matsim.core.events.MobsimScopeEventHandlingModule.install(MobsimScopeEventHandlingModule.java:39)
2024-11-11T19:11:04,472  INFO Injector:89   --> scope: Scopes.NO_SCOPE
2024-11-11T19:11:04,472  INFO Injector:92   --> target: Key[type=org.matsim.core.events.MobsimScopeEventHandling, annotation=[none]]
2024-11-11T19:11:04,472  INFO Injector:94   ==full==> LinkedKeyBinding{key=Key[type=org.matsim.core.controler.listener.ControlerListener, annotation=@com.google.inject.internal.Element(setName=,uniqueId=114, type=MULTIBINDER, keyType=)], source=org.matsim.core.events.MobsimScopeEventHandlingModule.install(MobsimScopeEventHandlingModule.java:39), scope=Scopes.NO_SCOPE, target=Key[type=org.matsim.core.events.MobsimScopeEventHandling, annotation=[none]]}
2024-11-11T19:11:04,472  INFO Injector:96 
2024-11-11T19:11:04,472  INFO Injector:85 org.matsim.core.mobsim.qsim.AbstractQSimModule @com.google.inject.internal.Element(setName=,uniqueId=115, type=MULTIBINDER, keyType=)
2024-11-11T19:11:04,472  INFO Injector:86   --> provider: ConstantFactory{value=org.matsim.core.events.MobsimScopeEventHandlingModule$1@1da57e5d}[Scopes.SINGLETON]
2024-11-11T19:11:04,472  INFO Injector:87   --> source: org.matsim.core.events.MobsimScopeEventHandlingModule.install(MobsimScopeEventHandlingModule.java:41)
2024-11-11T19:11:04,472  INFO Injector:89   --> scope: eager singleton
2024-11-11T19:11:04,472  INFO Injector:94   ==full==> InstanceBinding{key=Key[type=org.matsim.core.mobsim.qsim.AbstractQSimModule, annotation=@com.google.inject.internal.Element(setName=,uniqueId=115, type=MULTIBINDER, keyType=)], source=org.matsim.core.events.MobsimScopeEventHandlingModule.install(MobsimScopeEventHandlingModule.java:41), instance=org.matsim.core.events.MobsimScopeEventHandlingModule$1@1da57e5d}
2024-11-11T19:11:04,472  INFO Injector:96 
2024-11-11T19:11:04,472  INFO Injector:85 org.matsim.core.trafficmonitoring.TravelTimeCalculator @com.google.inject.name.Named("car")
2024-11-11T19:11:04,472  INFO Injector:86   --> provider: org.matsim.core.trafficmonitoring.TravelTimeCalculatorModule$SingleModeTravelTimeCalculatorProvider@105fc704[Scopes.SINGLETON]
[...]
[WARNING] thread Thread[#581,ForkJoinPool.commonPool-worker-256,5,org.matsim.contrib.ev.example.RunEvExampleWithEvScoring] will linger despite being asked to die via interruption
[WARNING] thread Thread[#612,ForkJoinPool.commonPool-worker-267,5,org.matsim.contrib.ev.example.RunEvExampleWithEvScoring] will linger despite being asked to die via interruption
[WARNING] thread Thread[#609,ForkJoinPool.commonPool-worker-269,5,org.matsim.contrib.ev.example.RunEvExampleWithEvScoring] will linger despite being asked to die via interruption
[WARNING] thread Thread[#616,ForkJoinPool.commonPool-worker-272,5,org.matsim.contrib.ev.example.RunEvExampleWithEvScoring] will linger despite being asked to die via interruption
[WARNING] thread Thread[#625,ForkJoinPool.commonPool-worker-278,5,org.matsim.contrib.ev.example.RunEvExampleWithEvScoring] will linger despite being asked to die via interruption
[WARNING] thread Thread[#641,ForkJoinPool.commonPool-worker-288,5,org.matsim.contrib.ev.example.RunEvExampleWithEvScoring] will linger despite being asked to die via interruption
[WARNING] thread Thread[#676,ForkJoinPool.commonPool-worker-301,5,org.matsim.contrib.ev.example.RunEvExampleWithEvScoring] will linger despite being asked to die via interruption
[WARNING] thread Thread[#673,ForkJoinPool.commonPool-worker-300,5,org.matsim.contrib.ev.example.RunEvExampleWithEvScoring] will linger despite being asked to die via interruption
[WARNING] thread Thread[#704,ForkJoinPool.commonPool-worker-312,5,org.matsim.contrib.ev.example.RunEvExampleWithEvScoring] will linger despite being asked to die via interruption
[WARNING] thread Thread[#702,ForkJoinPool.commonPool-worker-309,5,org.matsim.contrib.ev.example.RunEvExampleWithEvScoring] will linger despite being asked to die via interruption
[WARNING] thread Thread[#701,ForkJoinPool.commonPool-worker-314,5,org.matsim.contrib.ev.example.RunEvExampleWithEvScoring] will linger despite being asked to die via interruption
[WARNING] thread Thread[#705,ForkJoinPool.commonPool-worker-311,5,org.matsim.contrib.ev.example.RunEvExampleWithEvScoring] will linger despite being asked to die via interruption
[WARNING] thread Thread[#721,ForkJoinPool.commonPool-worker-318,5,org.matsim.contrib.ev.example.RunEvExampleWithEvScoring] will linger despite being asked to die via interruption
[WARNING] thread Thread[#720,ForkJoinPool.commonPool-worker-319,5,org.matsim.contrib.ev.example.RunEvExampleWithEvScoring] will linger despite being asked to die via interruption
[WARNING] thread Thread[#715,ForkJoinPool.commonPool-worker-317,5,org.matsim.contrib.ev.example.RunEvExampleWithEvScoring] will linger despite being asked to die via interruption
[WARNING] thread Thread[#736,ForkJoinPool.commonPool-worker-329,5,org.matsim.contrib.ev.example.RunEvExampleWithEvScoring] will linger despite being asked to die via interruption
[WARNING] thread Thread[#747,ForkJoinPool.commonPool-worker-330,5,org.matsim.contrib.ev.example.RunEvExampleWithEvScoring] will linger despite being asked to die via interruption
[WARNING] thread Thread[#759,ForkJoinPool.commonPool-worker-336,5,org.matsim.contrib.ev.example.RunEvExampleWithEvScoring] will linger despite being asked to die via interruption
[WARNING] thread Thread[#762,ForkJoinPool.commonPool-worker-340,5,org.matsim.contrib.ev.example.RunEvExampleWithEvScoring] will linger despite being asked to die via interruption
[WARNING] thread Thread[#763,ForkJoinPool.commonPool-worker-337,5,org.matsim.contrib.ev.example.RunEvExampleWithEvScoring] will linger despite being asked to die via interruption
[WARNING] thread Thread[#764,ForkJoinPool.commonPool-worker-341,5,org.matsim.contrib.ev.example.RunEvExampleWithEvScoring] will linger despite being asked to die via interruption
[WARNING] thread Thread[#777,ForkJoinPool.commonPool-worker-343,5,org.matsim.contrib.ev.example.RunEvExampleWithEvScoring] will linger despite being asked to die via interruption
[WARNING] thread Thread[#779,ForkJoinPool.commonPool-worker-348,5,org.matsim.contrib.ev.example.RunEvExampleWithEvScoring] will linger despite being asked to die via interruption
[WARNING] thread Thread[#781,ForkJoinPool.commonPool-worker-350,5,org.matsim.contrib.ev.example.RunEvExampleWithEvScoring] will linger despite being asked to die via interruption
[WARNING] thread Thread[#780,ForkJoinPool.commonPool-worker-349,5,org.matsim.contrib.ev.example.RunEvExampleWithEvScoring] will linger despite being asked to die via interruption
[WARNING] thread Thread[#795,ForkJoinPool.commonPool-worker-355,5,org.matsim.contrib.ev.example.RunEvExampleWithEvScoring] will linger despite being asked to die via interruption
[WARNING] thread Thread[#794,ForkJoinPool.commonPool-worker-354,5,org.matsim.contrib.ev.example.RunEvExampleWithEvScoring] will linger despite being asked to die via interruption
[WARNING] thread Thread[#796,ForkJoinPool.commonPool-worker-357,5,org.matsim.contrib.ev.example.RunEvExampleWithEvScoring] will linger despite being asked to die via interruption
[WARNING] thread Thread[#808,ForkJoinPool.commonPool-worker-363,5,org.matsim.contrib.ev.example.RunEvExampleWithEvScoring] will linger despite being asked to die via interruption
[WARNING] thread Thread[#809,ForkJoinPool.commonPool-worker-362,5,org.matsim.contrib.ev.example.RunEvExampleWithEvScoring] will linger despite being asked to die via interruption
[WARNING] thread Thread[#807,ForkJoinPool.commonPool-worker-361,5,org.matsim.contrib.ev.example.RunEvExampleWithEvScoring] will linger despite being asked to die via interruption
[WARNING] thread Thread[#826,ForkJoinPool.commonPool-worker-365,5,org.matsim.contrib.ev.example.RunEvExampleWithEvScoring] will linger despite being asked to die via interruption
[WARNING] thread Thread[#825,ForkJoinPool.commonPool-worker-367,5,org.matsim.contrib.ev.example.RunEvExampleWithEvScoring] will linger despite being asked to die via interruption
[WARNING] thread Thread[#822,ForkJoinPool.commonPool-worker-366,5,org.matsim.contrib.ev.example.RunEvExampleWithEvScoring] will linger despite being asked to die via interruption
[WARNING] thread Thread[#837,ForkJoinPool.commonPool-worker-374,5,org.matsim.contrib.ev.example.RunEvExampleWithEvScoring] will linger despite being asked to die via interruption
[WARNING] thread Thread[#840,ForkJoinPool.commonPool-worker-377,5,org.matsim.contrib.ev.example.RunEvExampleWithEvScoring] will linger despite being asked to die via interruption
[WARNING] thread Thread[#842,ForkJoinPool.commonPool-worker-379,5,org.matsim.contrib.ev.example.RunEvExampleWithEvScoring] will linger despite being asked to die via interruption
[WARNING] thread Thread[#841,ForkJoinPool.commonPool-worker-378,5,org.matsim.contrib.ev.example.RunEvExampleWithEvScoring] will linger despite being asked to die via interruption
[WARNING] thread Thread[#856,ForkJoinPool.commonPool-worker-381,5,org.matsim.contrib.ev.example.RunEvExampleWithEvScoring] will linger despite being asked to die via interruption
[WARNING] thread Thread[#872,ForkJoinPool.commonPool-worker-393,5,org.matsim.contrib.ev.example.RunEvExampleWithEvScoring] will linger despite being asked to die via interruption
[WARNING] thread Thread[#874,ForkJoinPool.commonPool-worker-395,5,org.matsim.contrib.ev.example.RunEvExampleWithEvScoring] will linger despite being asked to die via interruption
[WARNING] thread Thread[#873,ForkJoinPool.commonPool-worker-394,5,org.matsim.contrib.ev.example.RunEvExampleWithEvScoring] will linger despite being asked to die via interruption
[WARNING] thread Thread[#886,ForkJoinPool.commonPool-worker-399,5,org.matsim.contrib.ev.example.RunEvExampleWithEvScoring] will linger despite being asked to die via interruption
[WARNING] thread Thread[#883,ForkJoinPool.commonPool-worker-397,5,org.matsim.contrib.ev.example.RunEvExampleWithEvScoring] will linger despite being asked to die via interruption
[WARNING] thread Thread[#888,ForkJoinPool.commonPool-worker-401,5,org.matsim.contrib.ev.example.RunEvExampleWithEvScoring] will linger despite being asked to die via interruption
[WARNING] thread Thread[#889,ForkJoinPool.commonPool-worker-402,5,org.matsim.contrib.ev.example.RunEvExampleWithEvScoring] will linger despite being asked to die via interruption
[WARNING] thread Thread[#901,ForkJoinPool.commonPool-worker-405,5,org.matsim.contrib.ev.example.RunEvExampleWithEvScoring] will linger despite being asked to die via interruption
[WARNING] thread Thread[#904,ForkJoinPool.commonPool-worker-407,5,org.matsim.contrib.ev.example.RunEvExampleWithEvScoring] will linger despite being asked to die via interruption
[WARNING] thread Thread[#900,ForkJoinPool.commonPool-worker-404,5,org.matsim.contrib.ev.example.RunEvExampleWithEvScoring] will linger despite being asked to die via interruption
[WARNING] thread Thread[#903,ForkJoinPool.commonPool-worker-409,5,org.matsim.contrib.ev.example.RunEvExampleWithEvScoring] will linger despite being asked to die via interruption
[WARNING] thread Thread[#902,ForkJoinPool.commonPool-worker-408,5,org.matsim.contrib.ev.example.RunEvExampleWithEvScoring] will linger despite being asked to die via interruption
[WARNING] thread Thread[#913,ForkJoinPool.commonPool-worker-413,5,org.matsim.contrib.ev.example.RunEvExampleWithEvScoring] will linger despite being asked to die via interruption
[WARNING] thread Thread[#918,ForkJoinPool.commonPool-worker-412,5,org.matsim.contrib.ev.example.RunEvExampleWithEvScoring] will linger despite being asked to die via interruption
[WARNING] thread Thread[#916,ForkJoinPool.commonPool-worker-411,5,org.matsim.contrib.ev.example.RunEvExampleWithEvScoring] will linger despite being asked to die via interruption
[WARNING] thread Thread[#914,ForkJoinPool.commonPool-worker-415,5,org.matsim.contrib.ev.example.RunEvExampleWithEvScoring] will linger despite being asked to die via interruption
[WARNING] thread Thread[#915,ForkJoinPool.commonPool-worker-414,5,org.matsim.contrib.ev.example.RunEvExampleWithEvScoring] will linger despite being asked to die via interruption
[WARNING] thread Thread[#917,ForkJoinPool.commonPool-worker-410,5,org.matsim.contrib.ev.example.RunEvExampleWithEvScoring] will linger despite being asked to die via interruption
[WARNING] thread Thread[#931,ForkJoinPool.commonPool-worker-420,5,org.matsim.contrib.ev.example.RunEvExampleWithEvScoring] will linger despite being asked to die via interruption
[WARNING] thread Thread[#935,ForkJoinPool.commonPool-worker-424,5,org.matsim.contrib.ev.example.RunEvExampleWithEvScoring] will linger despite being asked to die via interruption
[WARNING] thread Thread[#933,ForkJoinPool.commonPool-worker-422,5,org.matsim.contrib.ev.example.RunEvExampleWithEvScoring] will linger despite being asked to die via interruption
[WARNING] thread Thread[#930,ForkJoinPool.commonPool-worker-423,5,org.matsim.contrib.ev.example.RunEvExampleWithEvScoring] will linger despite being asked to die via interruption
[WARNING] thread Thread[#949,ForkJoinPool.commonPool-worker-431,5,org.matsim.contrib.ev.example.RunEvExampleWithEvScoring] will linger despite being asked to die via interruption
[WARNING] thread Thread[#948,ForkJoinPool.commonPool-worker-425,5,org.matsim.contrib.ev.example.RunEvExampleWithEvScoring] will linger despite being asked to die via interruption
[WARNING] thread Thread[#964,ForkJoinPool.commonPool-worker-436,5,org.matsim.contrib.ev.example.RunEvExampleWithEvScoring] will linger despite being asked to die via interruption
[WARNING] thread Thread[#961,ForkJoinPool.commonPool-worker-433,5,org.matsim.contrib.ev.example.RunEvExampleWithEvScoring] will linger despite being asked to die via interruption
[WARNING] thread Thread[#959,ForkJoinPool.commonPool-worker-437,5,org.matsim.contrib.ev.example.RunEvExampleWithEvScoring] will linger despite being asked to die via interruption
[WARNING] thread Thread[#960,ForkJoinPool.commonPool-worker-434,5,org.matsim.contrib.ev.example.RunEvExampleWithEvScoring] will linger despite being asked to die via interruption
[WARNING] thread Thread[#978,ForkJoinPool.commonPool-worker-439,5,org.matsim.contrib.ev.example.RunEvExampleWithEvScoring] will linger despite being asked to die via interruption
[WARNING] thread Thread[#977,ForkJoinPool.commonPool-worker-443,5,org.matsim.contrib.ev.example.RunEvExampleWithEvScoring] will linger despite being asked to die via interruption
[WARNING] thread Thread[#975,ForkJoinPool.commonPool-worker-441,5,org.matsim.contrib.ev.example.RunEvExampleWithEvScoring] will linger despite being asked to die via interruption
[WARNING] thread Thread[#989,ForkJoinPool.commonPool-worker-446,5,org.matsim.contrib.ev.example.RunEvExampleWithEvScoring] will linger despite being asked to die via interruption
[WARNING] thread Thread[#990,ForkJoinPool.commonPool-worker-447,5,org.matsim.contrib.ev.example.RunEvExampleWithEvScoring] will linger despite being asked to die via interruption
[WARNING] thread Thread[#992,ForkJoinPool.commonPool-worker-449,5,org.matsim.contrib.ev.example.RunEvExampleWithEvScoring] will linger despite being asked to die via interruption
[WARNING] thread Thread[#988,ForkJoinPool.commonPool-worker-445,5,org.matsim.contrib.ev.example.RunEvExampleWithEvScoring] will linger despite being asked to die via interruption
[WARNING] thread Thread[#991,ForkJoinPool.commonPool-worker-448,5,org.matsim.contrib.ev.example.RunEvExampleWithEvScoring] will linger despite being asked to die via interruption
[WARNING] thread Thread[#995,ForkJoinPool.commonPool-worker-451,5,org.matsim.contrib.ev.example.RunEvExampleWithEvScoring] will linger despite being asked to die via interruption
[WARNING] thread Thread[#993,ForkJoinPool.commonPool-worker-450,5,org.matsim.contrib.ev.example.RunEvExampleWithEvScoring] will linger despite being asked to die via interruption
[WARNING] thread Thread[#994,ForkJoinPool.commonPool-worker-452,5,org.matsim.contrib.ev.example.RunEvExampleWithEvScoring] will linger despite being asked to die via interruption
[WARNING] thread Thread[#1005,ForkJoinPool.commonPool-worker-458,5,org.matsim.contrib.ev.example.RunEvExampleWithEvScoring] will linger despite being asked to die via interruption
[WARNING] thread Thread[#1007,ForkJoinPool.commonPool-worker-456,5,org.matsim.contrib.ev.example.RunEvExampleWithEvScoring] will linger despite being asked to die via interruption
[WARNING] thread Thread[#1008,ForkJoinPool.commonPool-worker-455,5,org.matsim.contrib.ev.example.RunEvExampleWithEvScoring] will linger despite being asked to die via interruption
[WARNING] thread Thread[#1004,ForkJoinPool.commonPool-worker-454,5,org.matsim.contrib.ev.example.RunEvExampleWithEvScoring] will linger despite being asked to die via interruption
[WARNING] thread Thread[#1009,ForkJoinPool.commonPool-worker-457,5,org.matsim.contrib.ev.example.RunEvExampleWithEvScoring] will linger despite being asked to die via interruption
[WARNING] thread Thread[#1024,ForkJoinPool.commonPool-worker-463,5,org.matsim.contrib.ev.example.RunEvExampleWithEvScoring] will linger despite being asked to die via interruption
[WARNING] thread Thread[#1021,ForkJoinPool.commonPool-worker-465,5,org.matsim.contrib.ev.example.RunEvExampleWithEvScoring] will linger despite being asked to die via interruption
[WARNING] thread Thread[#1025,ForkJoinPool.commonPool-worker-466,5,org.matsim.contrib.ev.example.RunEvExampleWithEvScoring] will linger despite being asked to die via interruption
[WARNING] thread Thread[#1023,ForkJoinPool.commonPool-worker-460,5,org.matsim.contrib.ev.example.RunEvExampleWithEvScoring] will linger despite being asked to die via interruption
[WARNING] thread Thread[#1020,ForkJoinPool.commonPool-worker-461,5,org.matsim.contrib.ev.example.RunEvExampleWithEvScoring] will linger despite being asked to die via interruption
[WARNING] thread Thread[#1022,ForkJoinPool.commonPool-worker-462,5,org.matsim.contrib.ev.example.RunEvExampleWithEvScoring] will linger despite being asked to die via interruption
[WARNING] thread Thread[#1018,ForkJoinPool.commonPool-worker-464,5,org.matsim.contrib.ev.example.RunEvExampleWithEvScoring] will linger despite being asked to die via interruption
[WARNING] thread Thread[#1019,ForkJoinPool.commonPool-worker-459,5,org.matsim.contrib.ev.example.RunEvExampleWithEvScoring] will linger despite being asked to die via interruption
[WARNING] thread Thread[#1041,ForkJoinPool.commonPool-worker-474,5,org.matsim.contrib.ev.example.RunEvExampleWithEvScoring] will linger despite being asked to die via interruption
[WARNING] thread Thread[#1038,ForkJoinPool.commonPool-worker-467,5,org.matsim.contrib.ev.example.RunEvExampleWithEvScoring] will linger despite being asked to die via interruption
[WARNING] thread Thread[#1048,ForkJoinPool.commonPool-worker-481,5,org.matsim.contrib.ev.example.RunEvExampleWithEvScoring] will linger despite being asked to die via interruption
[WARNING] thread Thread[#1036,ForkJoinPool.commonPool-worker-468,5,org.matsim.contrib.ev.example.RunEvExampleWithEvScoring] will linger despite being asked to die via interruption
[WARNING] thread Thread[#1037,ForkJoinPool.commonPool-worker-470,5,org.matsim.contrib.ev.example.RunEvExampleWithEvScoring] will linger despite being asked to die via interruption
[WARNING] thread Thread[#1035,ForkJoinPool.commonPool-worker-471,5,org.matsim.contrib.ev.example.RunEvExampleWithEvScoring] will linger despite being asked to die via interruption
[WARNING] thread Thread[#1040,ForkJoinPool.commonPool-worker-472,5,org.matsim.contrib.ev.example.RunEvExampleWithEvScoring] will linger despite being asked to die via interruption
[WARNING] thread Thread[#1034,ForkJoinPool.commonPool-worker-473,5,org.matsim.contrib.ev.example.RunEvExampleWithEvScoring] will linger despite being asked to die via interruption
[WARNING] thread Thread[#1042,ForkJoinPool.commonPool-worker-475,5,org.matsim.contrib.ev.example.RunEvExampleWithEvScoring] will linger despite being asked to die via interruption
[WARNING] thread Thread[#1043,ForkJoinPool.commonPool-worker-476,5,org.matsim.contrib.ev.example.RunEvExampleWithEvScoring] will linger despite being asked to die via interruption
[WARNING] thread Thread[#1044,ForkJoinPool.commonPool-worker-477,5,org.matsim.contrib.ev.example.RunEvExampleWithEvScoring] will linger despite being asked to die via interruption
[WARNING] thread Thread[#1045,ForkJoinPool.commonPool-worker-478,5,org.matsim.contrib.ev.example.RunEvExampleWithEvScoring] will linger despite being asked to die via interruption
[WARNING] thread Thread[#1046,ForkJoinPool.commonPool-worker-479,5,org.matsim.contrib.ev.example.RunEvExampleWithEvScoring] will linger despite being asked to die via interruption
[WARNING] thread Thread[#1047,ForkJoinPool.commonPool-worker-480,5,org.matsim.contrib.ev.example.RunEvExampleWithEvScoring] will linger despite being asked to die via interruption
[WARNING] thread Thread[#1039,ForkJoinPool.commonPool-worker-469,5,org.matsim.contrib.ev.example.RunEvExampleWithEvScoring] will linger despite being asked to die via interruption
[WARNING] thread Thread[#1049,ForkJoinPool.commonPool-worker-482,5,org.matsim.contrib.ev.example.RunEvExampleWithEvScoring] will linger despite being asked to die via interruption
[WARNING] thread Thread[#1055,ForkJoinPool.commonPool-worker-483,5,org.matsim.contrib.ev.example.RunEvExampleWithEvScoring] will linger despite being asked to die via interruption
[WARNING] NOTE: 128 thread(s) did not finish despite being asked to  via interruption. This is not a problem with exec:java, it is a problem with the running code. Although not serious, it should be remedied.
[INFO] ------------------------------------------------------------------------
[INFO] BUILD SUCCESS
[INFO] ------------------------------------------------------------------------
[INFO] Total time:  06:34 h
[INFO] Finished at: 2024-11-12T01:45:07-07:00
[INFO] ------------------------------------------------------------------------
