[INFO] Error stacktraces are turned on.
[INFO] Scanning for projects...
[INFO] 
[INFO] -----------------------< org.matsim.contrib:ev >------------------------
[INFO] Building ev 2025.0-SNAPSHOT
[INFO]   from pom.xml
[INFO] --------------------------------[ jar ]---------------------------------
[INFO] 
[INFO] --- exec-maven-plugin:3.0.0:java (default-cli) @ ev ---
2024-11-08T13:51:36,735  INFO RunEvExampleWithEvScoring:59 Starting simulation run with the following arguments:
2024-11-08T13:51:36,736  INFO RunEvExampleWithEvScoring:60 args=[./scenarios/utahev/utahevconfig.xml]
2024-11-08T13:51:36,748  INFO IOUtils:224 Resolved ./scenarios/utahev/utahevconfig.xml to ./scenarios/utahev/utahevconfig.xml
2024-11-08T13:51:36,751  INFO Config:550 setting context to [file:/home/isaacp/research/repos/EvMatsim/contribs/ev/]
2024-11-08T13:51:36,785  INFO Version:21 HV000001: Hibernate Validator 8.0.1.Final
2024-11-08T13:51:36,875  INFO MatsimXmlParser:170 starting to parse xml from url file:/home/isaacp/research/repos/EvMatsim/contribs/ev/./scenarios/utahev/utahevconfig.xml ...
2024-11-08T13:51:36,896  INFO ConfigReader:105 using config_v2-reader
2024-11-08T13:51:36,897  INFO MatsimXmlParser:296 Trying to load http://www.matsim.org/files/dtd/config_v2.dtd. In some cases (e.g. network interface up but no connection), this may take a bit.
2024-11-08T13:51:37,278  INFO Config:550 setting context to [file:/home/isaacp/research/repos/EvMatsim/contribs/ev/./scenarios/utahev/utahevconfig.xml]
2024-11-08T13:51:37,279  INFO CommandLine:511 Received 0 positional command line arguments:
2024-11-08T13:51:37,279  INFO CommandLine:512    
2024-11-08T13:51:37,280  INFO CommandLine:534 Received 0 command line options with 0 prefixes:
2024-11-08T13:51:37,292  INFO ScenarioLoaderImpl:135 loading network from file:/home/isaacp/research/repos/EvMatsim/contribs/ev/scenarios/utahev/utahevnetwork.xml
2024-11-08T13:51:37,293  INFO MatsimXmlParser:170 starting to parse xml from url file:/home/isaacp/research/repos/EvMatsim/contribs/ev/scenarios/utahev/utahevnetwork.xml ...
2024-11-08T13:51:37,353  INFO MatsimNetworkReader:122 using network_v2-reader.
2024-11-08T13:51:37,354  INFO MatsimXmlParser:296 Trying to load http://www.matsim.org/files/dtd/network_v2.dtd. In some cases (e.g. network interface up but no connection), this may take a bit.
2024-11-08T13:51:37,516  INFO NetworkImpl:165  node # 1
2024-11-08T13:51:37,516  INFO NetworkImpl:165  node # 4
2024-11-08T13:51:37,517  INFO NetworkImpl:165  node # 16
2024-11-08T13:51:37,520  INFO NetworkImpl:165  node # 64
2024-11-08T13:51:37,527  INFO NetworkImpl:165  node # 256
2024-11-08T13:51:37,536  INFO NetworkImpl:165  node # 1024
2024-11-08T13:51:37,557  INFO NetworkImpl:165  node # 4096
2024-11-08T13:51:37,593  INFO NetworkImpl:165  node # 16384
2024-11-08T13:51:37,621  INFO NetworkImpl:161  link # 1
2024-11-08T13:51:37,622  INFO NetworkImpl:161  link # 4
2024-11-08T13:51:37,624  INFO NetworkImpl:161  link # 16
2024-11-08T13:51:37,628  INFO NetworkImpl:161  link # 64
2024-11-08T13:51:37,636  INFO NetworkImpl:161  link # 256
2024-11-08T13:51:37,654  INFO NetworkImpl:161  link # 1024
2024-11-08T13:51:37,692  INFO NetworkImpl:161  link # 4096
2024-11-08T13:51:37,778  INFO NetworkImpl:161  link # 16384
2024-11-08T13:51:37,896  INFO ScenarioLoaderImpl:172 no facilities file set in config, therefore not loading any facilities.  This is not a problem except if you are using facilities
2024-11-08T13:51:37,897  INFO ScenarioLoaderImpl:188 no facility-attributes file set in config, not loading any facility attributes
2024-11-08T13:51:37,897  INFO ScenarioLoaderImpl:196 loading population from file:/home/isaacp/research/repos/EvMatsim/contribs/ev/scenarios/utahev/utahevplans.xml
2024-11-08T13:51:37,900  INFO MatsimXmlParser:170 starting to parse xml from url file:/home/isaacp/research/repos/EvMatsim/contribs/ev/scenarios/utahev/utahevplans.xml ...
2024-11-08T13:51:37,901  INFO PopulationReader:150 using plans_v4-reader.
2024-11-08T13:51:37,901  INFO MatsimXmlParser:296 Trying to load http://www.matsim.org/files/dtd/plans_v4.dtd. In some cases (e.g. network interface up but no connection), this may take a bit.
2024-11-08T13:51:38,211  INFO ParallelPopulationReaderMatsimV4:167 Start parallel population reading...
2024-11-08T13:51:38,218  INFO PopulationImpl:107  person # 1
2024-11-08T13:51:38,221  INFO PopulationImpl:107  person # 4
2024-11-08T13:51:38,222  INFO PopulationImpl:107  person # 16
2024-11-08T13:51:38,226  INFO PopulationImpl:107  person # 64
2024-11-08T13:51:38,233  INFO PopulationImpl:107  person # 256
2024-11-08T13:51:38,256  INFO PopulationImpl:107  person # 1024
2024-11-08T13:51:38,288  INFO PopulationImpl:107  person # 4096
2024-11-08T13:51:38,340  INFO PopulationImpl:107  person # 16384
2024-11-08T13:51:38,628  INFO PopulationImpl:107  person # 65536
2024-11-08T13:51:38,835  INFO ParallelPopulationReaderMatsimV4:202 Finished parallel population reading...
2024-11-08T13:51:38,836  INFO PopulationUtils:1122  person # 103028
2024-11-08T13:51:38,836  INFO ScenarioLoaderImpl:244 no person-attributes file set in config, not loading any person attributes
2024-11-08T13:51:38,836  INFO ScenarioLoaderImpl:258 no households file set in config, not loading households
2024-11-08T13:51:38,836  INFO ScenarioLoaderImpl:292 no transit schedule file set in config, not loading any transit schedule
2024-11-08T13:51:38,837  INFO ScenarioLoaderImpl:333 no transit vehicles file set in config, not loading any transit vehicles
2024-11-08T13:51:38,837  INFO ScenarioLoaderImpl:339 loading vehicles from utahevvehicles.xml
2024-11-08T13:51:38,838  INFO MatsimXmlParser:170 starting to parse xml from url file:/home/isaacp/research/repos/EvMatsim/contribs/ev/scenarios/utahev/utahevvehicles.xml ...
2024-11-08T13:51:38,855  INFO MatsimXmlParser:296 Trying to load http://www.matsim.org/files/dtd/vehicleDefinitions_v2.0.xsd. In some cases (e.g. network interface up but no connection), this may take a bit.
2024-11-08T13:51:39,027  INFO MatsimXmlParser:296 Trying to load http://www.matsim.org/files/dtd/matsimCommon.xsd. In some cases (e.g. network interface up but no connection), this may take a bit.
2024-11-08T13:51:39,189  INFO MatsimXmlParser:296 Trying to load http://www.matsim.org/files/dtd/vehicleDefinitionsEnumTypes.xsd. In some cases (e.g. network interface up but no connection), this may take a bit.
2024-11-08T13:51:39,357  INFO MatsimVehicleReader$VehicleReader:77 Found following schemaLocation in vehicle definition file: http://www.matsim.org/files/dtd http://www.matsim.org/files/dtd/vehicleDefinitions_v2.0.xsd
2024-11-08T13:51:39,357  INFO VehicleReaderV2:24 Using org.matsim.vehicles.VehicleReaderV2
2024-11-08T13:51:39,370  INFO Counter:70 [VehiclesImpl] added vehicle # 1
2024-11-08T13:51:39,370  INFO Counter:70 [VehiclesImpl] added vehicle # 2
2024-11-08T13:51:39,371  INFO Counter:70 [VehiclesImpl] added vehicle # 4
2024-11-08T13:51:39,371  INFO Counter:70 [VehiclesImpl] added vehicle # 8
2024-11-08T13:51:39,372  INFO Counter:70 [VehiclesImpl] added vehicle # 16
2024-11-08T13:51:39,374  INFO Counter:70 [VehiclesImpl] added vehicle # 32
2024-11-08T13:51:39,377  INFO Counter:70 [VehiclesImpl] added vehicle # 64
2024-11-08T13:51:39,382  INFO Counter:70 [VehiclesImpl] added vehicle # 128
2024-11-08T13:51:39,388  INFO Counter:70 [VehiclesImpl] added vehicle # 256
2024-11-08T13:51:39,393  INFO Counter:70 [VehiclesImpl] added vehicle # 512
2024-11-08T13:51:39,400  INFO Counter:70 [VehiclesImpl] added vehicle # 1024
2024-11-08T13:51:39,411  INFO Counter:70 [VehiclesImpl] added vehicle # 2048
2024-11-08T13:51:39,430  INFO Counter:70 [VehiclesImpl] added vehicle # 4096
2024-11-08T13:51:39,454  INFO Counter:70 [VehiclesImpl] added vehicle # 8192
2024-11-08T13:51:39,484  INFO Counter:70 [VehiclesImpl] added vehicle # 16384
2024-11-08T13:51:39,585  INFO Counter:70 [VehiclesImpl] added vehicle # 32768
2024-11-08T13:51:39,706  INFO Counter:70 [VehiclesImpl] added vehicle # 65536
2024-11-08T13:51:39,819  INFO VspConfigConsistencyCheckerImpl:68 NOT running vsp config consistency check because vsp defaults checking level is set to IGNORE
2024-11-08T13:51:40,389  INFO SimStepParallelEventsManagerImpl:80 number of threads=1
2024-11-08T13:51:40,391  INFO MatsimXmlParser:170 starting to parse xml from url file:/home/isaacp/research/repos/EvMatsim/contribs/ev/scenarios/utahev/utahevchargers.xml ...
2024-11-08T13:51:40,392  INFO MatsimXmlParser:296 Trying to load http://matsim.org/files/dtd/chargers_v1.dtd. In some cases (e.g. network interface up but no connection), this may take a bit.
2024-11-08T13:51:40,789  INFO EventsManagerImpl:138 adding Event-Handler: org.matsim.core.trafficmonitoring.TravelTimeCalculator
2024-11-08T13:51:40,789  INFO EventsManagerImpl:144   org.matsim.api.core.v01.events.handler.LinkEnterEventHandler
2024-11-08T13:51:40,789  INFO EventsManagerImpl:205     > org.matsim.api.core.v01.events.LinkEnterEvent
2024-11-08T13:51:40,790  INFO EventsManagerImpl:144   org.matsim.api.core.v01.events.handler.LinkLeaveEventHandler
2024-11-08T13:51:40,790  INFO EventsManagerImpl:205     > org.matsim.api.core.v01.events.LinkLeaveEvent
2024-11-08T13:51:40,790  INFO EventsManagerImpl:144   org.matsim.api.core.v01.events.handler.VehicleEntersTrafficEventHandler
2024-11-08T13:51:40,790  INFO EventsManagerImpl:205     > org.matsim.api.core.v01.events.VehicleEntersTrafficEvent
2024-11-08T13:51:40,790  INFO EventsManagerImpl:144   org.matsim.api.core.v01.events.handler.VehicleLeavesTrafficEventHandler
2024-11-08T13:51:40,790  INFO EventsManagerImpl:205     > org.matsim.api.core.v01.events.VehicleLeavesTrafficEvent
2024-11-08T13:51:40,790  INFO EventsManagerImpl:144   org.matsim.core.api.experimental.events.handler.VehicleArrivesAtFacilityEventHandler
2024-11-08T13:51:40,790  INFO EventsManagerImpl:205     > org.matsim.core.api.experimental.events.VehicleArrivesAtFacilityEvent
2024-11-08T13:51:40,790  INFO EventsManagerImpl:144   org.matsim.api.core.v01.events.handler.VehicleAbortsEventHandler
2024-11-08T13:51:40,790  INFO EventsManagerImpl:205     > org.matsim.api.core.v01.events.VehicleAbortsEvent
2024-11-08T13:51:40,791  INFO EventsManagerImpl:154 
2024-11-08T13:51:40,791  INFO EventsManagerImpl:138 adding Event-Handler: org.matsim.core.trafficmonitoring.TravelTimeCalculator
2024-11-08T13:51:40,791  INFO EventsManagerImpl:144   org.matsim.api.core.v01.events.handler.LinkEnterEventHandler
2024-11-08T13:51:40,791  INFO EventsManagerImpl:205     > org.matsim.api.core.v01.events.LinkEnterEvent
2024-11-08T13:51:40,791  INFO EventsManagerImpl:144   org.matsim.api.core.v01.events.handler.LinkLeaveEventHandler
2024-11-08T13:51:40,791  INFO EventsManagerImpl:205     > org.matsim.api.core.v01.events.LinkLeaveEvent
2024-11-08T13:51:40,791  INFO EventsManagerImpl:144   org.matsim.api.core.v01.events.handler.VehicleEntersTrafficEventHandler
2024-11-08T13:51:40,791  INFO EventsManagerImpl:205     > org.matsim.api.core.v01.events.VehicleEntersTrafficEvent
2024-11-08T13:51:40,791  INFO EventsManagerImpl:144   org.matsim.api.core.v01.events.handler.VehicleLeavesTrafficEventHandler
2024-11-08T13:51:40,791  INFO EventsManagerImpl:205     > org.matsim.api.core.v01.events.VehicleLeavesTrafficEvent
2024-11-08T13:51:40,791  INFO EventsManagerImpl:144   org.matsim.core.api.experimental.events.handler.VehicleArrivesAtFacilityEventHandler
2024-11-08T13:51:40,791  INFO EventsManagerImpl:205     > org.matsim.core.api.experimental.events.VehicleArrivesAtFacilityEvent
2024-11-08T13:51:40,791  INFO EventsManagerImpl:144   org.matsim.api.core.v01.events.handler.VehicleAbortsEventHandler
2024-11-08T13:51:40,792  INFO EventsManagerImpl:205     > org.matsim.api.core.v01.events.VehicleAbortsEvent
2024-11-08T13:51:40,792  INFO EventsManagerImpl:154 
2024-11-08T13:51:40,792  INFO OutputDirectoryHierarchy:278 ###########################################################
2024-11-08T13:51:40,792  INFO OutputDirectoryHierarchy:279 ### THE CONTROLER WILL DELETE THE EXISTING OUTPUT DIRECTORY:
2024-11-08T13:51:40,792  INFO OutputDirectoryHierarchy:280 ### ./scenarios/utahev/output
2024-11-08T13:51:40,793  INFO OutputDirectoryHierarchy:282 ###########################################################
2024-11-08T13:51:40,908  INFO StrategyManager:77 global innovation switch off after iteration: 2147483647
2024-11-08T13:51:40,911  INFO GenericStrategyManagerImpl:330 added change request:  iteration=-2147483648 newWeight=0.0 strategy=RandomPlanSelector_ReRoute
2024-11-08T13:51:40,911  INFO GenericStrategyManagerImpl:362 setting PlanSelectorForRemoval to class org.matsim.core.replanning.selectors.WorstPlanForRemovalSelector
2024-11-08T13:51:40,914  INFO EventsManagerImpl:138 adding Event-Handler: org.matsim.core.scoring.ScoringFunctionsForPopulation
2024-11-08T13:51:40,915  INFO EventsManagerImpl:144   org.matsim.core.events.handler.BasicEventHandler
2024-11-08T13:51:40,915  INFO EventsManagerImpl:205     > org.matsim.api.core.v01.events.Event
2024-11-08T13:51:40,915  INFO EventsManagerImpl:154 
2024-11-08T13:51:40,916  INFO EventsManagerImpl:138 adding Event-Handler: org.matsim.core.scoring.ScoringFunctionsForPopulation
2024-11-08T13:51:40,916  INFO EventsManagerImpl:144   org.matsim.core.events.handler.BasicEventHandler
2024-11-08T13:51:40,916  INFO EventsManagerImpl:205     > org.matsim.api.core.v01.events.Event
2024-11-08T13:51:40,916  INFO EventsManagerImpl:154 
2024-11-08T13:51:40,918  INFO MatsimXmlParser:170 starting to parse xml from url file:/home/isaacp/research/repos/EvMatsim/contribs/ev/scenarios/utahev/utahevcounts.xml ...
2024-11-08T13:51:40,921  INFO MatsimCountsReader:107 using counts_v1-reader.
2024-11-08T13:51:40,921  INFO MatsimXmlParser:296 Trying to load http://matsim.org/files/dtd/counts_v1.xsd. In some cases (e.g. network interface up but no connection), this may take a bit.
2024-11-08T13:51:41,101  INFO CalcLinkStats:151  resetting `count' to zero.  This info is here since we want to check when this is happening during normal simulation runs.  kai, jan'11
2024-11-08T13:51:41,139  INFO EventsManagerImpl:138 adding Event-Handler: org.matsim.analysis.VolumesAnalyzer
2024-11-08T13:51:41,139  INFO EventsManagerImpl:144   org.matsim.api.core.v01.events.handler.LinkLeaveEventHandler
2024-11-08T13:51:41,140  INFO EventsManagerImpl:205     > org.matsim.api.core.v01.events.LinkLeaveEvent
2024-11-08T13:51:41,140  INFO EventsManagerImpl:144   org.matsim.api.core.v01.events.handler.VehicleEntersTrafficEventHandler
2024-11-08T13:51:41,140  INFO EventsManagerImpl:205     > org.matsim.api.core.v01.events.VehicleEntersTrafficEvent
2024-11-08T13:51:41,140  INFO EventsManagerImpl:154 
2024-11-08T13:51:41,140  INFO EventsManagerImpl:138 adding Event-Handler: org.matsim.analysis.VolumesAnalyzer
2024-11-08T13:51:41,140  INFO EventsManagerImpl:144   org.matsim.api.core.v01.events.handler.LinkLeaveEventHandler
2024-11-08T13:51:41,140  INFO EventsManagerImpl:205     > org.matsim.api.core.v01.events.LinkLeaveEvent
2024-11-08T13:51:41,140  INFO EventsManagerImpl:144   org.matsim.api.core.v01.events.handler.VehicleEntersTrafficEventHandler
2024-11-08T13:51:41,140  INFO EventsManagerImpl:205     > org.matsim.api.core.v01.events.VehicleEntersTrafficEvent
2024-11-08T13:51:41,140  INFO EventsManagerImpl:154 
2024-11-08T13:51:41,140  INFO EventsManagerImpl:138 adding Event-Handler: org.matsim.analysis.LegHistogram
2024-11-08T13:51:41,140  INFO EventsManagerImpl:144   org.matsim.api.core.v01.events.handler.PersonDepartureEventHandler
2024-11-08T13:51:41,141  INFO EventsManagerImpl:205     > org.matsim.api.core.v01.events.PersonDepartureEvent
2024-11-08T13:51:41,141  INFO EventsManagerImpl:144   org.matsim.api.core.v01.events.handler.PersonArrivalEventHandler
2024-11-08T13:51:41,141  INFO EventsManagerImpl:205     > org.matsim.api.core.v01.events.PersonArrivalEvent
2024-11-08T13:51:41,141  INFO EventsManagerImpl:144   org.matsim.api.core.v01.events.handler.PersonStuckEventHandler
2024-11-08T13:51:41,141  INFO EventsManagerImpl:205     > org.matsim.api.core.v01.events.PersonStuckEvent
2024-11-08T13:51:41,141  INFO EventsManagerImpl:154 
2024-11-08T13:51:41,141  INFO EventsManagerImpl:138 adding Event-Handler: org.matsim.analysis.LegHistogram
2024-11-08T13:51:41,141  INFO EventsManagerImpl:144   org.matsim.api.core.v01.events.handler.PersonDepartureEventHandler
2024-11-08T13:51:41,141  INFO EventsManagerImpl:205     > org.matsim.api.core.v01.events.PersonDepartureEvent
2024-11-08T13:51:41,141  INFO EventsManagerImpl:144   org.matsim.api.core.v01.events.handler.PersonArrivalEventHandler
2024-11-08T13:51:41,141  INFO EventsManagerImpl:205     > org.matsim.api.core.v01.events.PersonArrivalEvent
2024-11-08T13:51:41,141  INFO EventsManagerImpl:144   org.matsim.api.core.v01.events.handler.PersonStuckEventHandler
2024-11-08T13:51:41,141  INFO EventsManagerImpl:205     > org.matsim.api.core.v01.events.PersonStuckEvent
2024-11-08T13:51:41,141  INFO EventsManagerImpl:154 
2024-11-08T13:51:41,142  INFO EventsManagerImpl:138 adding Event-Handler: org.matsim.analysis.CalcLegTimes
2024-11-08T13:51:41,142  INFO EventsManagerImpl:144   org.matsim.api.core.v01.events.handler.PersonDepartureEventHandler
2024-11-08T13:51:41,142  INFO EventsManagerImpl:205     > org.matsim.api.core.v01.events.PersonDepartureEvent
2024-11-08T13:51:41,142  INFO EventsManagerImpl:144   org.matsim.api.core.v01.events.handler.PersonArrivalEventHandler
2024-11-08T13:51:41,142  INFO EventsManagerImpl:205     > org.matsim.api.core.v01.events.PersonArrivalEvent
2024-11-08T13:51:41,142  INFO EventsManagerImpl:144   org.matsim.api.core.v01.events.handler.ActivityEndEventHandler
2024-11-08T13:51:41,142  INFO EventsManagerImpl:205     > org.matsim.api.core.v01.events.ActivityEndEvent
2024-11-08T13:51:41,142  INFO EventsManagerImpl:144   org.matsim.api.core.v01.events.handler.ActivityStartEventHandler
2024-11-08T13:51:41,142  INFO EventsManagerImpl:205     > org.matsim.api.core.v01.events.ActivityStartEvent
2024-11-08T13:51:41,142  INFO EventsManagerImpl:154 
2024-11-08T13:51:41,142  INFO EventsManagerImpl:138 adding Event-Handler: org.matsim.analysis.CalcLegTimes
2024-11-08T13:51:41,142  INFO EventsManagerImpl:144   org.matsim.api.core.v01.events.handler.PersonDepartureEventHandler
2024-11-08T13:51:41,142  INFO EventsManagerImpl:205     > org.matsim.api.core.v01.events.PersonDepartureEvent
2024-11-08T13:51:41,143  INFO EventsManagerImpl:144   org.matsim.api.core.v01.events.handler.PersonArrivalEventHandler
2024-11-08T13:51:41,143  INFO EventsManagerImpl:205     > org.matsim.api.core.v01.events.PersonArrivalEvent
2024-11-08T13:51:41,143  INFO EventsManagerImpl:144   org.matsim.api.core.v01.events.handler.ActivityEndEventHandler
2024-11-08T13:51:41,143  INFO EventsManagerImpl:205     > org.matsim.api.core.v01.events.ActivityEndEvent
2024-11-08T13:51:41,143  INFO EventsManagerImpl:144   org.matsim.api.core.v01.events.handler.ActivityStartEventHandler
2024-11-08T13:51:41,143  INFO EventsManagerImpl:205     > org.matsim.api.core.v01.events.ActivityStartEvent
2024-11-08T13:51:41,143  INFO EventsManagerImpl:154 
2024-11-08T13:51:41,161  INFO AbstractController:57 Used Controler-Class: org.matsim.core.controler.NewControler
2024-11-08T13:51:41,161  INFO Config:510 ConfigConsistencyChecker with runtime type=class org.matsim.core.config.consistency.ConfigConsistencyCheckerImpl was already added; not adding it a second time
2024-11-08T13:51:41,162  INFO EventsManagerImpl:138 adding Event-Handler: org.matsim.contrib.ev.charging.ChargingEventSequenceCollector
2024-11-08T13:51:41,162  INFO EventsManagerImpl:144   org.matsim.contrib.ev.charging.QueuedAtChargerEventHandler
2024-11-08T13:51:41,162  INFO EventsManagerImpl:205     > org.matsim.contrib.ev.charging.QueuedAtChargerEvent
2024-11-08T13:51:41,162  INFO EventsManagerImpl:144   org.matsim.contrib.ev.charging.QuitQueueAtChargerEventHandler
2024-11-08T13:51:41,162  INFO EventsManagerImpl:205     > org.matsim.contrib.ev.charging.QuitQueueAtChargerEvent
2024-11-08T13:51:41,162  INFO EventsManagerImpl:144   org.matsim.contrib.ev.charging.ChargingStartEventHandler
2024-11-08T13:51:41,162  INFO EventsManagerImpl:205     > org.matsim.contrib.ev.charging.ChargingStartEvent
2024-11-08T13:51:41,162  INFO EventsManagerImpl:144   org.matsim.contrib.ev.charging.ChargingEndEventHandler
2024-11-08T13:51:41,163  INFO EventsManagerImpl:205     > org.matsim.contrib.ev.charging.ChargingEndEvent
2024-11-08T13:51:41,163  INFO EventsManagerImpl:154 
2024-11-08T13:51:41,163  INFO EventsManagerImpl:138 adding Event-Handler: org.matsim.contrib.ev.charging.ChargingEventSequenceCollector
2024-11-08T13:51:41,163  INFO EventsManagerImpl:144   org.matsim.contrib.ev.charging.QueuedAtChargerEventHandler
2024-11-08T13:51:41,163  INFO EventsManagerImpl:205     > org.matsim.contrib.ev.charging.QueuedAtChargerEvent
2024-11-08T13:51:41,163  INFO EventsManagerImpl:144   org.matsim.contrib.ev.charging.QuitQueueAtChargerEventHandler
2024-11-08T13:51:41,163  INFO EventsManagerImpl:205     > org.matsim.contrib.ev.charging.QuitQueueAtChargerEvent
2024-11-08T13:51:41,163  INFO EventsManagerImpl:144   org.matsim.contrib.ev.charging.ChargingStartEventHandler
2024-11-08T13:51:41,163  INFO EventsManagerImpl:205     > org.matsim.contrib.ev.charging.ChargingStartEvent
2024-11-08T13:51:41,163  INFO EventsManagerImpl:144   org.matsim.contrib.ev.charging.ChargingEndEventHandler
2024-11-08T13:51:41,163  INFO EventsManagerImpl:205     > org.matsim.contrib.ev.charging.ChargingEndEvent
2024-11-08T13:51:41,163  INFO EventsManagerImpl:154 
2024-11-08T13:51:41,163  INFO EventsManagerImpl:138 adding Event-Handler: org.matsim.contrib.ev.stats.ChargerPowerTimeProfileCalculator
2024-11-08T13:51:41,163  INFO EventsManagerImpl:144   org.matsim.contrib.ev.charging.ChargingStartEventHandler
2024-11-08T13:51:41,164  INFO EventsManagerImpl:205     > org.matsim.contrib.ev.charging.ChargingStartEvent
2024-11-08T13:51:41,164  INFO EventsManagerImpl:144   org.matsim.contrib.ev.charging.ChargingEndEventHandler
2024-11-08T13:51:41,164  INFO EventsManagerImpl:205     > org.matsim.contrib.ev.charging.ChargingEndEvent
2024-11-08T13:51:41,164  INFO EventsManagerImpl:154 
2024-11-08T13:51:41,164  INFO EventsManagerImpl:138 adding Event-Handler: org.matsim.contrib.ev.stats.ChargerPowerTimeProfileCalculator
2024-11-08T13:51:41,164  INFO EventsManagerImpl:144   org.matsim.contrib.ev.charging.ChargingStartEventHandler
2024-11-08T13:51:41,164  INFO EventsManagerImpl:205     > org.matsim.contrib.ev.charging.ChargingStartEvent
2024-11-08T13:51:41,164  INFO EventsManagerImpl:144   org.matsim.contrib.ev.charging.ChargingEndEventHandler
2024-11-08T13:51:41,164  INFO EventsManagerImpl:205     > org.matsim.contrib.ev.charging.ChargingEndEvent
2024-11-08T13:51:41,164  INFO EventsManagerImpl:154 
2024-11-08T13:51:41,164  INFO Injector:81 === printInjector start ===
2024-11-08T13:51:41,165  INFO Injector:85 org.matsim.contrib.ev.fleet.ElectricFleet 
2024-11-08T13:51:41,165  INFO Injector:86   --> provider: org.matsim.contrib.ev.example.RunEvExampleWithEvScoring$1$1@7bf517d7[Scopes.SINGLETON]
2024-11-08T13:51:41,165  INFO Injector:87   --> source: org.matsim.contrib.ev.example.RunEvExampleWithEvScoring$1.install(RunEvExampleWithEvScoring.java:82)
2024-11-08T13:51:41,165  INFO Injector:89   --> scope: eager singleton
2024-11-08T13:51:41,166  INFO Injector:94   ==full==> ProviderInstanceBinding{key=Key[type=org.matsim.contrib.ev.fleet.ElectricFleet, annotation=[none]], source=org.matsim.contrib.ev.example.RunEvExampleWithEvScoring$1.install(RunEvExampleWithEvScoring.java:82), scope=eager singleton, provider=org.matsim.contrib.ev.example.RunEvExampleWithEvScoring$1$1@7bf517d7}
2024-11-08T13:51:41,166  INFO Injector:96 
2024-11-08T13:51:41,166  INFO Injector:85 org.matsim.core.scoring.ScoringFunctionFactory 
2024-11-08T13:51:41,166  INFO Injector:86   --> provider: FactoryProxy{key=Key[type=org.matsim.core.scoring.ScoringFunctionFactory, annotation=[none]], provider=com.google.inject.internal.ConstructorBindingImpl$Factory@720070e8}
2024-11-08T13:51:41,166  INFO Injector:87   --> source: org.matsim.contrib.ev.example.RunEvExampleWithEvScoring$1.install(RunEvExampleWithEvScoring.java:95)
2024-11-08T13:51:41,166  INFO Injector:89   --> scope: Scopes.NO_SCOPE
2024-11-08T13:51:41,167  INFO Injector:92   --> target: Key[type=org.matsim.contrib.ev.scoring.EvScoringFunctionFactory, annotation=[none]]
2024-11-08T13:51:41,167  INFO Injector:94   ==full==> LinkedKeyBinding{key=Key[type=org.matsim.core.scoring.ScoringFunctionFactory, annotation=[none]], source=org.matsim.contrib.ev.example.RunEvExampleWithEvScoring$1.install(RunEvExampleWithEvScoring.java:95), scope=Scopes.NO_SCOPE, target=Key[type=org.matsim.contrib.ev.scoring.EvScoringFunctionFactory, annotation=[none]]}
2024-11-08T13:51:41,167  INFO Injector:96 
2024-11-08T13:51:41,167  INFO Injector:85 org.matsim.contrib.ev.fleet.ElectricFleetSpecification 
2024-11-08T13:51:41,167  INFO Injector:86   --> provider: org.matsim.contrib.ev.fleet.ElectricFleetModule$1@7140152b[Scopes.SINGLETON]
2024-11-08T13:51:41,167  INFO Injector:87   --> source: org.matsim.contrib.ev.fleet.ElectricFleetModule.install(ElectricFleetModule.java:47)
2024-11-08T13:51:41,167  INFO Injector:89   --> scope: eager singleton
2024-11-08T13:51:41,167  INFO Injector:94   ==full==> ProviderInstanceBinding{key=Key[type=org.matsim.contrib.ev.fleet.ElectricFleetSpecification, annotation=[none]], source=org.matsim.contrib.ev.fleet.ElectricFleetModule.install(ElectricFleetModule.java:47), scope=eager singleton, provider=org.matsim.contrib.ev.fleet.ElectricFleetModule$1@7140152b}
2024-11-08T13:51:41,167  INFO Injector:96 
2024-11-08T13:51:41,167  INFO Injector:85 org.matsim.core.mobsim.qsim.AbstractQSimModule @com.google.inject.internal.Element(setName=,uniqueId=132, type=MULTIBINDER, keyType=)
2024-11-08T13:51:41,167  INFO Injector:86   --> provider: ConstantFactory{value=org.matsim.contrib.ev.fleet.ElectricFleetModule$2@1e9a9117}[Scopes.SINGLETON]
2024-11-08T13:51:41,167  INFO Injector:87   --> source: org.matsim.contrib.ev.fleet.ElectricFleetModule.install(ElectricFleetModule.java:57)
2024-11-08T13:51:41,167  INFO Injector:89   --> scope: eager singleton
2024-11-08T13:51:41,167  INFO Injector:94   ==full==> InstanceBinding{key=Key[type=org.matsim.core.mobsim.qsim.AbstractQSimModule, annotation=@com.google.inject.internal.Element(setName=,uniqueId=132, type=MULTIBINDER, keyType=)], source=org.matsim.contrib.ev.fleet.ElectricFleetModule.install(ElectricFleetModule.java:57), instance=org.matsim.contrib.ev.fleet.ElectricFleetModule$2@1e9a9117}
2024-11-08T13:51:41,167  INFO Injector:96 
2024-11-08T13:51:41,167  INFO Injector:85 org.matsim.api.core.v01.network.Network @com.google.inject.name.Named("chargers")
2024-11-08T13:51:41,174  INFO Injector:86   --> provider: FactoryProxy{key=Key[type=org.matsim.api.core.v01.network.Network, annotation=@com.google.inject.name.Named("chargers")], provider=@Provides org.matsim.core.scenario.ScenarioByInstanceModule.provideNetwork(ScenarioByInstanceModule.java:60)}[Scopes.SINGLETON]
2024-11-08T13:51:41,174  INFO Injector:87   --> source: org.matsim.contrib.ev.infrastructure.ChargingInfrastructureModule.install(ChargingInfrastructureModule.java:56)
2024-11-08T13:51:41,174  INFO Injector:89   --> scope: eager singleton
2024-11-08T13:51:41,174  INFO Injector:92   --> target: Key[type=org.matsim.api.core.v01.network.Network, annotation=[none]]
2024-11-08T13:51:41,174  INFO Injector:94   ==full==> LinkedKeyBinding{key=Key[type=org.matsim.api.core.v01.network.Network, annotation=@com.google.inject.name.Named("chargers")], source=org.matsim.contrib.ev.infrastructure.ChargingInfrastructureModule.install(ChargingInfrastructureModule.java:56), scope=eager singleton, target=Key[type=org.matsim.api.core.v01.network.Network, annotation=[none]]}
2024-11-08T13:51:41,174  INFO Injector:96 
2024-11-08T13:51:41,174  INFO Injector:85 org.matsim.contrib.ev.infrastructure.ChargingInfrastructureSpecification 
2024-11-08T13:51:41,174  INFO Injector:86   --> provider: org.matsim.contrib.ev.infrastructure.ChargingInfrastructureModule$$Lambda/0x00007fcfac47a860@4911785f[Scopes.SINGLETON]
2024-11-08T13:51:41,174  INFO Injector:87   --> source: org.matsim.contrib.ev.infrastructure.ChargingInfrastructureModule.install(ChargingInfrastructureModule.java:58)
2024-11-08T13:51:41,174  INFO Injector:89   --> scope: eager singleton
2024-11-08T13:51:41,175  INFO Injector:94   ==full==> ProviderInstanceBinding{key=Key[type=org.matsim.contrib.ev.infrastructure.ChargingInfrastructureSpecification, annotation=[none]], source=org.matsim.contrib.ev.infrastructure.ChargingInfrastructureModule.install(ChargingInfrastructureModule.java:58), scope=eager singleton, provider=org.matsim.contrib.ev.infrastructure.ChargingInfrastructureModule$$Lambda/0x00007fcfac47a860@4911785f}
2024-11-08T13:51:41,175  INFO Injector:96 
2024-11-08T13:51:41,175  INFO Injector:85 org.matsim.core.mobsim.qsim.AbstractQSimModule @com.google.inject.internal.Element(setName=,uniqueId=133, type=MULTIBINDER, keyType=)
2024-11-08T13:51:41,175  INFO Injector:86   --> provider: ConstantFactory{value=org.matsim.contrib.ev.infrastructure.ChargingInfrastructureModule$1@38d8bdad}[Scopes.SINGLETON]
2024-11-08T13:51:41,175  INFO Injector:87   --> source: org.matsim.contrib.ev.infrastructure.ChargingInfrastructureModule.install(ChargingInfrastructureModule.java:65)
2024-11-08T13:51:41,175  INFO Injector:89   --> scope: eager singleton
2024-11-08T13:51:41,175  INFO Injector:94   ==full==> InstanceBinding{key=Key[type=org.matsim.core.mobsim.qsim.AbstractQSimModule, annotation=@com.google.inject.internal.Element(setName=,uniqueId=133, type=MULTIBINDER, keyType=)], source=org.matsim.contrib.ev.infrastructure.ChargingInfrastructureModule.install(ChargingInfrastructureModule.java:65), instance=org.matsim.contrib.ev.infrastructure.ChargingInfrastructureModule$1@38d8bdad}
2024-11-08T13:51:41,175  INFO Injector:96 
2024-11-08T13:51:41,175  INFO Injector:85 org.matsim.contrib.ev.charging.ChargingLogic$Factory 
2024-11-08T13:51:41,175  INFO Injector:86   --> provider: org.matsim.contrib.ev.charging.ChargingModule$1@6031080
2024-11-08T13:51:41,175  INFO Injector:87   --> source: org.matsim.contrib.ev.charging.ChargingModule.install(ChargingModule.java:39)
2024-11-08T13:51:41,175  INFO Injector:89   --> scope: Scopes.NO_SCOPE
2024-11-08T13:51:41,175  INFO Injector:94   ==full==> ProviderInstanceBinding{key=Key[type=org.matsim.contrib.ev.charging.ChargingLogic$Factory, annotation=[none]], source=org.matsim.contrib.ev.charging.ChargingModule.install(ChargingModule.java:39), scope=Scopes.NO_SCOPE, provider=org.matsim.contrib.ev.charging.ChargingModule$1@6031080}
2024-11-08T13:51:41,175  INFO Injector:96 
2024-11-08T13:51:41,175  INFO Injector:85 org.matsim.contrib.ev.charging.ChargingPower$Factory 
2024-11-08T13:51:41,176  INFO Injector:86   --> provider: ConstantFactory{value=org.matsim.contrib.ev.charging.ChargingModule$$Lambda/0x00007fcfac47bbd8@44571dbd}[Scopes.SINGLETON]
2024-11-08T13:51:41,176  INFO Injector:87   --> source: org.matsim.contrib.ev.charging.ChargingModule.install(ChargingModule.java:47)
2024-11-08T13:51:41,176  INFO Injector:89   --> scope: eager singleton
2024-11-08T13:51:41,176  INFO Injector:94   ==full==> InstanceBinding{key=Key[type=org.matsim.contrib.ev.charging.ChargingPower$Factory, annotation=[none]], source=org.matsim.contrib.ev.charging.ChargingModule.install(ChargingModule.java:47), instance=org.matsim.contrib.ev.charging.ChargingModule$$Lambda/0x00007fcfac47bbd8@44571dbd}
2024-11-08T13:51:41,176  INFO Injector:96 
2024-11-08T13:51:41,176  INFO Injector:85 org.matsim.core.mobsim.qsim.AbstractQSimModule @com.google.inject.internal.Element(setName=,uniqueId=134, type=MULTIBINDER, keyType=)
2024-11-08T13:51:41,176  INFO Injector:86   --> provider: ConstantFactory{value=org.matsim.contrib.ev.charging.ChargingModule$2@473b281a}[Scopes.SINGLETON]
2024-11-08T13:51:41,176  INFO Injector:87   --> source: org.matsim.contrib.ev.charging.ChargingModule.install(ChargingModule.java:49)
2024-11-08T13:51:41,176  INFO Injector:89   --> scope: eager singleton
2024-11-08T13:51:41,176  INFO Injector:94   ==full==> InstanceBinding{key=Key[type=org.matsim.core.mobsim.qsim.AbstractQSimModule, annotation=@com.google.inject.internal.Element(setName=,uniqueId=134, type=MULTIBINDER, keyType=)], source=org.matsim.contrib.ev.charging.ChargingModule.install(ChargingModule.java:49), instance=org.matsim.contrib.ev.charging.ChargingModule$2@473b281a}
2024-11-08T13:51:41,176  INFO Injector:96 
2024-11-08T13:51:41,176  INFO Injector:85 org.matsim.contrib.ev.discharging.DriveEnergyConsumption$Factory 
2024-11-08T13:51:41,176  INFO Injector:86   --> provider: ConstantFactory{value=org.matsim.contrib.ev.discharging.DischargingModule$$Lambda/0x00007fcfac47c340@5c9af091}[Scopes.SINGLETON]
2024-11-08T13:51:41,176  INFO Injector:87   --> source: org.matsim.contrib.ev.discharging.DischargingModule.install(DischargingModule.java:36)
2024-11-08T13:51:41,176  INFO Injector:89   --> scope: eager singleton
2024-11-08T13:51:41,177  INFO Injector:94   ==full==> InstanceBinding{key=Key[type=org.matsim.contrib.ev.discharging.DriveEnergyConsumption$Factory, annotation=[none]], source=org.matsim.contrib.ev.discharging.DischargingModule.install(DischargingModule.java:36), instance=org.matsim.contrib.ev.discharging.DischargingModule$$Lambda/0x00007fcfac47c340@5c9af091}
2024-11-08T13:51:41,177  INFO Injector:96 
2024-11-08T13:51:41,177  INFO Injector:85 org.matsim.contrib.ev.temperature.TemperatureService 
2024-11-08T13:51:41,177  INFO Injector:86   --> provider: ConstantFactory{value=org.matsim.contrib.ev.discharging.DischargingModule$$Lambda/0x00007fcfac47c740@1495187b}[Scopes.SINGLETON]
2024-11-08T13:51:41,177  INFO Injector:87   --> source: org.matsim.contrib.ev.discharging.DischargingModule.install(DischargingModule.java:37)
2024-11-08T13:51:41,177  INFO Injector:89   --> scope: eager singleton
2024-11-08T13:51:41,177  INFO Injector:94   ==full==> InstanceBinding{key=Key[type=org.matsim.contrib.ev.temperature.TemperatureService, annotation=[none]], source=org.matsim.contrib.ev.discharging.DischargingModule.install(DischargingModule.java:37), instance=org.matsim.contrib.ev.discharging.DischargingModule$$Lambda/0x00007fcfac47c740@1495187b}
2024-11-08T13:51:41,177  INFO Injector:96 
2024-11-08T13:51:41,177  INFO Injector:85 org.matsim.contrib.ev.discharging.AuxEnergyConsumption$Factory 
2024-11-08T13:51:41,177  INFO Injector:86   --> provider: FactoryProxy{key=Key[type=org.matsim.contrib.ev.discharging.AuxEnergyConsumption$Factory, annotation=[none]], provider=com.google.inject.internal.ConstructorBindingImpl$Factory@56044936}[Scopes.SINGLETON]
2024-11-08T13:51:41,177  INFO Injector:87   --> source: org.matsim.contrib.ev.discharging.DischargingModule.install(DischargingModule.java:38)
2024-11-08T13:51:41,177  INFO Injector:89   --> scope: Scopes.SINGLETON
2024-11-08T13:51:41,177  INFO Injector:92   --> target: Key[type=org.matsim.contrib.ev.discharging.OhdeSlaskiAuxEnergyConsumption$Factory, annotation=[none]]
2024-11-08T13:51:41,177  INFO Injector:94   ==full==> LinkedKeyBinding{key=Key[type=org.matsim.contrib.ev.discharging.AuxEnergyConsumption$Factory, annotation=[none]], source=org.matsim.contrib.ev.discharging.DischargingModule.install(DischargingModule.java:38), scope=Scopes.SINGLETON, target=Key[type=org.matsim.contrib.ev.discharging.OhdeSlaskiAuxEnergyConsumption$Factory, annotation=[none]]}
2024-11-08T13:51:41,177  INFO Injector:96 
2024-11-08T13:51:41,177  INFO Injector:85 org.matsim.core.mobsim.qsim.AbstractQSimModule @com.google.inject.internal.Element(setName=,uniqueId=135, type=MULTIBINDER, keyType=)
2024-11-08T13:51:41,177  INFO Injector:86   --> provider: ConstantFactory{value=org.matsim.contrib.ev.discharging.DischargingModule$1@4746c1d7}[Scopes.SINGLETON]
2024-11-08T13:51:41,177  INFO Injector:87   --> source: org.matsim.contrib.ev.discharging.DischargingModule.install(DischargingModule.java:40)
2024-11-08T13:51:41,177  INFO Injector:89   --> scope: eager singleton
2024-11-08T13:51:41,177  INFO Injector:94   ==full==> InstanceBinding{key=Key[type=org.matsim.core.mobsim.qsim.AbstractQSimModule, annotation=@com.google.inject.internal.Element(setName=,uniqueId=135, type=MULTIBINDER, keyType=)], source=org.matsim.contrib.ev.discharging.DischargingModule.install(DischargingModule.java:40), instance=org.matsim.contrib.ev.discharging.DischargingModule$1@4746c1d7}
2024-11-08T13:51:41,177  INFO Injector:96 
2024-11-08T13:51:41,177  INFO Injector:85 org.matsim.core.events.handler.EventHandler @com.google.inject.internal.Element(setName=,uniqueId=136, type=MULTIBINDER, keyType=)
2024-11-08T13:51:41,178  INFO Injector:86   --> provider: FactoryProxy{key=Key[type=org.matsim.core.events.handler.EventHandler, annotation=@com.google.inject.internal.Element(setName=,uniqueId=136, type=MULTIBINDER, keyType=)], provider=com.google.inject.internal.ConstructorBindingImpl$Factory@2ac20cbe[Scopes.SINGLETON]}
2024-11-08T13:51:41,178  INFO Injector:87   --> source: org.matsim.contrib.ev.stats.EvStatsModule.install(EvStatsModule.java:45)
2024-11-08T13:51:41,178  INFO Injector:89   --> scope: Scopes.NO_SCOPE
2024-11-08T13:51:41,178  INFO Injector:92   --> target: Key[type=org.matsim.contrib.ev.charging.ChargingEventSequenceCollector, annotation=[none]]
2024-11-08T13:51:41,178  INFO Injector:94   ==full==> LinkedKeyBinding{key=Key[type=org.matsim.core.events.handler.EventHandler, annotation=@com.google.inject.internal.Element(setName=,uniqueId=136, type=MULTIBINDER, keyType=)], source=org.matsim.contrib.ev.stats.EvStatsModule.install(EvStatsModule.java:45), scope=Scopes.NO_SCOPE, target=Key[type=org.matsim.contrib.ev.charging.ChargingEventSequenceCollector, annotation=[none]]}
2024-11-08T13:51:41,178  INFO Injector:96 
2024-11-08T13:51:41,178  INFO Injector:85 org.matsim.core.controler.listener.ControlerListener @com.google.inject.internal.Element(setName=,uniqueId=137, type=MULTIBINDER, keyType=)
2024-11-08T13:51:41,178  INFO Injector:86   --> provider: FactoryProxy{key=Key[type=org.matsim.core.controler.listener.ControlerListener, annotation=@com.google.inject.internal.Element(setName=,uniqueId=137, type=MULTIBINDER, keyType=)], provider=com.google.inject.internal.ConstructorBindingImpl$Factory@21576f0f}[Scopes.SINGLETON]
2024-11-08T13:51:41,178  INFO Injector:87   --> source: org.matsim.contrib.ev.stats.EvStatsModule.install(EvStatsModule.java:46)
2024-11-08T13:51:41,178  INFO Injector:89   --> scope: Scopes.SINGLETON
2024-11-08T13:51:41,178  INFO Injector:92   --> target: Key[type=org.matsim.contrib.ev.stats.ChargingProceduresCSVWriter, annotation=[none]]
2024-11-08T13:51:41,178  INFO Injector:94   ==full==> LinkedKeyBinding{key=Key[type=org.matsim.core.controler.listener.ControlerListener, annotation=@com.google.inject.internal.Element(setName=,uniqueId=137, type=MULTIBINDER, keyType=)], source=org.matsim.contrib.ev.stats.EvStatsModule.install(EvStatsModule.java:46), scope=Scopes.SINGLETON, target=Key[type=org.matsim.contrib.ev.stats.ChargingProceduresCSVWriter, annotation=[none]]}
2024-11-08T13:51:41,178  INFO Injector:96 
2024-11-08T13:51:41,178  INFO Injector:85 org.matsim.core.mobsim.qsim.AbstractQSimModule @com.google.inject.internal.Element(setName=,uniqueId=138, type=MULTIBINDER, keyType=)
2024-11-08T13:51:41,178  INFO Injector:86   --> provider: ConstantFactory{value=org.matsim.contrib.ev.stats.EvStatsModule$1@d9ef201}[Scopes.SINGLETON]
2024-11-08T13:51:41,178  INFO Injector:87   --> source: org.matsim.contrib.ev.stats.EvStatsModule.install(EvStatsModule.java:48)
2024-11-08T13:51:41,178  INFO Injector:89   --> scope: eager singleton
2024-11-08T13:51:41,178  INFO Injector:94   ==full==> InstanceBinding{key=Key[type=org.matsim.core.mobsim.qsim.AbstractQSimModule, annotation=@com.google.inject.internal.Element(setName=,uniqueId=138, type=MULTIBINDER, keyType=)], source=org.matsim.contrib.ev.stats.EvStatsModule.install(EvStatsModule.java:48), instance=org.matsim.contrib.ev.stats.EvStatsModule$1@d9ef201}
2024-11-08T13:51:41,178  INFO Injector:96 
2024-11-08T13:51:41,178  INFO Injector:85 org.matsim.core.events.handler.EventHandler @com.google.inject.internal.Element(setName=,uniqueId=139, type=MULTIBINDER, keyType=)
2024-11-08T13:51:41,179  INFO Injector:86   --> provider: FactoryProxy{key=Key[type=org.matsim.core.events.handler.EventHandler, annotation=@com.google.inject.internal.Element(setName=,uniqueId=139, type=MULTIBINDER, keyType=)], provider=com.google.inject.internal.ConstructorBindingImpl$Factory@1dbded9e[Scopes.SINGLETON]}
2024-11-08T13:51:41,179  INFO Injector:87   --> source: org.matsim.contrib.ev.stats.EvStatsModule.install(EvStatsModule.java:66)
2024-11-08T13:51:41,179  INFO Injector:89   --> scope: Scopes.NO_SCOPE
2024-11-08T13:51:41,179  INFO Injector:92   --> target: Key[type=org.matsim.contrib.ev.stats.ChargerPowerTimeProfileCalculator, annotation=[none]]
2024-11-08T13:51:41,179  INFO Injector:94   ==full==> LinkedKeyBinding{key=Key[type=org.matsim.core.events.handler.EventHandler, annotation=@com.google.inject.internal.Element(setName=,uniqueId=139, type=MULTIBINDER, keyType=)], source=org.matsim.contrib.ev.stats.EvStatsModule.install(EvStatsModule.java:66), scope=Scopes.NO_SCOPE, target=Key[type=org.matsim.contrib.ev.stats.ChargerPowerTimeProfileCalculator, annotation=[none]]}
2024-11-08T13:51:41,179  INFO Injector:96 
2024-11-08T13:51:41,179  INFO Injector:85 org.matsim.core.controler.listener.ControlerListener @com.google.inject.internal.Element(setName=,uniqueId=140, type=MULTIBINDER, keyType=)
2024-11-08T13:51:41,179  INFO Injector:86   --> provider: org.matsim.contrib.ev.stats.EvStatsModule$2@20f4d4b1
2024-11-08T13:51:41,179  INFO Injector:87   --> source: org.matsim.contrib.ev.stats.EvStatsModule.install(EvStatsModule.java:67)
2024-11-08T13:51:41,179  INFO Injector:89   --> scope: Scopes.NO_SCOPE
2024-11-08T13:51:41,179  INFO Injector:94   ==full==> ProviderInstanceBinding{key=Key[type=org.matsim.core.controler.listener.ControlerListener, annotation=@com.google.inject.internal.Element(setName=,uniqueId=140, type=MULTIBINDER, keyType=)], source=org.matsim.contrib.ev.stats.EvStatsModule.install(EvStatsModule.java:67), scope=Scopes.NO_SCOPE, provider=org.matsim.contrib.ev.stats.EvStatsModule$2@20f4d4b1}
2024-11-08T13:51:41,179  INFO Injector:96 
2024-11-08T13:51:41,179  INFO Injector:85 org.matsim.core.mobsim.qsim.AbstractQSimModule @com.google.inject.internal.Element(setName=,uniqueId=141, type=MULTIBINDER, keyType=)
2024-11-08T13:51:41,179  INFO Injector:86   --> provider: ConstantFactory{value=org.matsim.contrib.ev.EvModule$1@705603ca}[Scopes.SINGLETON]
2024-11-08T13:51:41,179  INFO Injector:87   --> source: org.matsim.contrib.ev.EvModule.install(EvModule.java:41)
2024-11-08T13:51:41,179  INFO Injector:89   --> scope: eager singleton
2024-11-08T13:51:41,179  INFO Injector:94   ==full==> InstanceBinding{key=Key[type=org.matsim.core.mobsim.qsim.AbstractQSimModule, annotation=@com.google.inject.internal.Element(setName=,uniqueId=141, type=MULTIBINDER, keyType=)], source=org.matsim.contrib.ev.EvModule.install(EvModule.java:41), instance=org.matsim.contrib.ev.EvModule$1@705603ca}
2024-11-08T13:51:41,179  INFO Injector:96 
2024-11-08T13:51:41,179  INFO Injector:85 org.matsim.core.router.RoutingModule @com.google.inject.name.Named("car")
2024-11-08T13:51:41,179  INFO Injector:86   --> provider: org.matsim.contrib.ev.routing.EvNetworkRoutingProvider@736fe877
2024-11-08T13:51:41,179  INFO Injector:87   --> source: org.matsim.contrib.ev.example.RunEvExampleWithEvScoring$1.install(RunEvExampleWithEvScoring.java:98)
2024-11-08T13:51:41,179  INFO Injector:89   --> scope: Scopes.NO_SCOPE
2024-11-08T13:51:41,180  INFO Injector:94   ==full==> ProviderInstanceBinding{key=Key[type=org.matsim.core.router.RoutingModule, annotation=@com.google.inject.name.Named("car")], source=org.matsim.contrib.ev.example.RunEvExampleWithEvScoring$1.install(RunEvExampleWithEvScoring.java:98), scope=Scopes.NO_SCOPE, provider=org.matsim.contrib.ev.routing.EvNetworkRoutingProvider@736fe877}
2024-11-08T13:51:41,180  INFO Injector:96 
2024-11-08T13:51:41,180  INFO Injector:85 org.matsim.api.core.v01.Scenario 
2024-11-08T13:51:41,180  INFO Injector:86   --> provider: ConstantFactory{value=org.matsim.core.scenario.MutableScenario@69845ae6}[Scopes.SINGLETON]
2024-11-08T13:51:41,180  INFO Injector:87   --> source: org.matsim.core.scenario.ScenarioByInstanceModule.install(ScenarioByInstanceModule.java:52)
2024-11-08T13:51:41,180  INFO Injector:89   --> scope: eager singleton
2024-11-08T13:51:41,180  INFO Injector:94   ==full==> InstanceBinding{key=Key[type=org.matsim.api.core.v01.Scenario, annotation=[none]], source=org.matsim.core.scenario.ScenarioByInstanceModule.install(ScenarioByInstanceModule.java:52), instance=org.matsim.core.scenario.MutableScenario@69845ae6}
2024-11-08T13:51:41,180  INFO Injector:96 
2024-11-08T13:51:41,180  INFO Injector:85 org.matsim.facilities.ActivityFacilities 
2024-11-08T13:51:41,180  INFO Injector:86   --> provider: @Provides org.matsim.core.scenario.ScenarioByInstanceModule.provideActivityFacilities(ScenarioByInstanceModule.java:72)
2024-11-08T13:51:41,180  INFO Injector:87   --> source: org.matsim.facilities.ActivityFacilities org.matsim.core.scenario.ScenarioByInstanceModule.provideActivityFacilities(org.matsim.api.core.v01.Scenario)
2024-11-08T13:51:41,180  INFO Injector:89   --> scope: Scopes.NO_SCOPE
2024-11-08T13:51:41,180  INFO Injector:94   ==full==> ProviderInstanceBinding{key=Key[type=org.matsim.facilities.ActivityFacilities, annotation=[none]], source=org.matsim.facilities.ActivityFacilities org.matsim.core.scenario.ScenarioByInstanceModule.provideActivityFacilities(org.matsim.api.core.v01.Scenario), scope=Scopes.NO_SCOPE, provider=@Provides org.matsim.core.scenario.ScenarioByInstanceModule.provideActivityFacilities(ScenarioByInstanceModule.java:72)}
2024-11-08T13:51:41,180  INFO Injector:96 
2024-11-08T13:51:41,180  INFO Injector:85 org.matsim.households.Households 
2024-11-08T13:51:41,181  INFO Injector:86   --> provider: @Provides org.matsim.core.scenario.ScenarioByInstanceModule.provideHouseholds(ScenarioByInstanceModule.java:77)
2024-11-08T13:51:41,181  INFO Injector:87   --> source: org.matsim.households.Households org.matsim.core.scenario.ScenarioByInstanceModule.provideHouseholds(org.matsim.api.core.v01.Scenario)
2024-11-08T13:51:41,181  INFO Injector:89   --> scope: Scopes.NO_SCOPE
2024-11-08T13:51:41,181  INFO Injector:94   ==full==> ProviderInstanceBinding{key=Key[type=org.matsim.households.Households, annotation=[none]], source=org.matsim.households.Households org.matsim.core.scenario.ScenarioByInstanceModule.provideHouseholds(org.matsim.api.core.v01.Scenario), scope=Scopes.NO_SCOPE, provider=@Provides org.matsim.core.scenario.ScenarioByInstanceModule.provideHouseholds(ScenarioByInstanceModule.java:77)}
2024-11-08T13:51:41,181  INFO Injector:96 
2024-11-08T13:51:41,181  INFO Injector:85 org.matsim.lanes.Lanes 
2024-11-08T13:51:41,181  INFO Injector:86   --> provider: @Provides org.matsim.core.scenario.ScenarioByInstanceModule.provideLanes(ScenarioByInstanceModule.java:87)
2024-11-08T13:51:41,181  INFO Injector:87   --> source: org.matsim.lanes.Lanes org.matsim.core.scenario.ScenarioByInstanceModule.provideLanes(org.matsim.api.core.v01.Scenario)
2024-11-08T13:51:41,181  INFO Injector:89   --> scope: Scopes.NO_SCOPE
2024-11-08T13:51:41,181  INFO Injector:94   ==full==> ProviderInstanceBinding{key=Key[type=org.matsim.lanes.Lanes, annotation=[none]], source=org.matsim.lanes.Lanes org.matsim.core.scenario.ScenarioByInstanceModule.provideLanes(org.matsim.api.core.v01.Scenario), scope=Scopes.NO_SCOPE, provider=@Provides org.matsim.core.scenario.ScenarioByInstanceModule.provideLanes(ScenarioByInstanceModule.java:87)}
2024-11-08T13:51:41,181  INFO Injector:96 
2024-11-08T13:51:41,181  INFO Injector:85 org.matsim.api.core.v01.network.Network 
2024-11-08T13:51:41,181  INFO Injector:86   --> provider: @Provides org.matsim.core.scenario.ScenarioByInstanceModule.provideNetwork(ScenarioByInstanceModule.java:60)
2024-11-08T13:51:41,181  INFO Injector:87   --> source: org.matsim.api.core.v01.network.Network org.matsim.core.scenario.ScenarioByInstanceModule.provideNetwork(org.matsim.api.core.v01.Scenario)
2024-11-08T13:51:41,181  INFO Injector:89   --> scope: Scopes.NO_SCOPE
2024-11-08T13:51:41,181  INFO Injector:94   ==full==> ProviderInstanceBinding{key=Key[type=org.matsim.api.core.v01.network.Network, annotation=[none]], source=org.matsim.api.core.v01.network.Network org.matsim.core.scenario.ScenarioByInstanceModule.provideNetwork(org.matsim.api.core.v01.Scenario), scope=Scopes.NO_SCOPE, provider=@Provides org.matsim.core.scenario.ScenarioByInstanceModule.provideNetwork(ScenarioByInstanceModule.java:60)}
2024-11-08T13:51:41,181  INFO Injector:96 
2024-11-08T13:51:41,181  INFO Injector:85 org.matsim.api.core.v01.population.Population 
2024-11-08T13:51:41,181  INFO Injector:86   --> provider: @Provides org.matsim.core.scenario.ScenarioByInstanceModule.providePopulation(ScenarioByInstanceModule.java:64)
2024-11-08T13:51:41,182  INFO Injector:87   --> source: org.matsim.api.core.v01.population.Population org.matsim.core.scenario.ScenarioByInstanceModule.providePopulation(org.matsim.api.core.v01.Scenario)
2024-11-08T13:51:41,182  INFO Injector:89   --> scope: Scopes.NO_SCOPE
2024-11-08T13:51:41,182  INFO Injector:94   ==full==> ProviderInstanceBinding{key=Key[type=org.matsim.api.core.v01.population.Population, annotation=[none]], source=org.matsim.api.core.v01.population.Population org.matsim.core.scenario.ScenarioByInstanceModule.providePopulation(org.matsim.api.core.v01.Scenario), scope=Scopes.NO_SCOPE, provider=@Provides org.matsim.core.scenario.ScenarioByInstanceModule.providePopulation(ScenarioByInstanceModule.java:64)}
2024-11-08T13:51:41,182  INFO Injector:96 
2024-11-08T13:51:41,182  INFO Injector:85 org.matsim.api.core.v01.population.PopulationFactory 
2024-11-08T13:51:41,182  INFO Injector:86   --> provider: @Provides org.matsim.core.scenario.ScenarioByInstanceModule.providePopulationFactory(ScenarioByInstanceModule.java:68)
2024-11-08T13:51:41,182  INFO Injector:87   --> source: org.matsim.api.core.v01.population.PopulationFactory org.matsim.core.scenario.ScenarioByInstanceModule.providePopulationFactory(org.matsim.api.core.v01.population.Population)
2024-11-08T13:51:41,182  INFO Injector:89   --> scope: Scopes.NO_SCOPE
2024-11-08T13:51:41,182  INFO Injector:94   ==full==> ProviderInstanceBinding{key=Key[type=org.matsim.api.core.v01.population.PopulationFactory, annotation=[none]], source=org.matsim.api.core.v01.population.PopulationFactory org.matsim.core.scenario.ScenarioByInstanceModule.providePopulationFactory(org.matsim.api.core.v01.population.Population), scope=Scopes.NO_SCOPE, provider=@Provides org.matsim.core.scenario.ScenarioByInstanceModule.providePopulationFactory(ScenarioByInstanceModule.java:68)}
2024-11-08T13:51:41,182  INFO Injector:96 
2024-11-08T13:51:41,182  INFO Injector:85 org.matsim.vehicles.Vehicles 
2024-11-08T13:51:41,182  INFO Injector:86   --> provider: @Provides org.matsim.core.scenario.ScenarioByInstanceModule.provideVehicles(ScenarioByInstanceModule.java:82)
2024-11-08T13:51:41,182  INFO Injector:87   --> source: org.matsim.vehicles.Vehicles org.matsim.core.scenario.ScenarioByInstanceModule.provideVehicles(org.matsim.api.core.v01.Scenario)
2024-11-08T13:51:41,182  INFO Injector:89   --> scope: Scopes.NO_SCOPE
2024-11-08T13:51:41,183  INFO Injector:94   ==full==> ProviderInstanceBinding{key=Key[type=org.matsim.vehicles.Vehicles, annotation=[none]], source=org.matsim.vehicles.Vehicles org.matsim.core.scenario.ScenarioByInstanceModule.provideVehicles(org.matsim.api.core.v01.Scenario), scope=Scopes.NO_SCOPE, provider=@Provides org.matsim.core.scenario.ScenarioByInstanceModule.provideVehicles(ScenarioByInstanceModule.java:82)}
2024-11-08T13:51:41,183  INFO Injector:96 
2024-11-08T13:51:41,183  INFO Injector:85 org.matsim.core.controler.ControlerI 
2024-11-08T13:51:41,183  INFO Injector:86   --> provider: FactoryProxy{key=Key[type=org.matsim.core.controler.ControlerI, annotation=[none]], provider=com.google.inject.internal.ConstructorBindingImpl$Factory@492c3eef}[Scopes.SINGLETON]
2024-11-08T13:51:41,183  INFO Injector:87   --> source: org.matsim.core.controler.NewControlerModule.install(NewControlerModule.java:30)
2024-11-08T13:51:41,183  INFO Injector:89   --> scope: eager singleton
2024-11-08T13:51:41,183  INFO Injector:92   --> target: Key[type=org.matsim.core.controler.NewControler, annotation=[none]]
2024-11-08T13:51:41,183  INFO Injector:94   ==full==> LinkedKeyBinding{key=Key[type=org.matsim.core.controler.ControlerI, annotation=[none]], source=org.matsim.core.controler.NewControlerModule.install(NewControlerModule.java:30), scope=eager singleton, target=Key[type=org.matsim.core.controler.NewControler, annotation=[none]]}
2024-11-08T13:51:41,183  INFO Injector:96 
2024-11-08T13:51:41,183  INFO Injector:85 org.matsim.core.controler.ControlerListenerManager 
2024-11-08T13:51:41,183  INFO Injector:86   --> provider: FactoryProxy{key=Key[type=org.matsim.core.controler.ControlerListenerManager, annotation=[none]], provider=com.google.inject.internal.ConstructorBindingImpl$Factory@3b0ffb49[Scopes.SINGLETON]}
2024-11-08T13:51:41,183  INFO Injector:87   --> source: org.matsim.core.controler.NewControlerModule.install(NewControlerModule.java:32)
2024-11-08T13:51:41,183  INFO Injector:89   --> scope: Scopes.NO_SCOPE
2024-11-08T13:51:41,183  INFO Injector:92   --> target: Key[type=org.matsim.core.controler.ControlerListenerManagerImpl, annotation=[none]]
2024-11-08T13:51:41,183  INFO Injector:94   ==full==> LinkedKeyBinding{key=Key[type=org.matsim.core.controler.ControlerListenerManager, annotation=[none]], source=org.matsim.core.controler.NewControlerModule.install(NewControlerModule.java:32), scope=Scopes.NO_SCOPE, target=Key[type=org.matsim.core.controler.ControlerListenerManagerImpl, annotation=[none]]}
2024-11-08T13:51:41,183  INFO Injector:96 
2024-11-08T13:51:41,183  INFO Injector:85 org.matsim.core.controler.TerminationCriterion 
2024-11-08T13:51:41,183  INFO Injector:86   --> provider: FactoryProxy{key=Key[type=org.matsim.core.controler.TerminationCriterion, annotation=[none]], provider=com.google.inject.internal.ConstructorBindingImpl$Factory@7017d5a4}
2024-11-08T13:51:41,183  INFO Injector:87   --> source: org.matsim.core.controler.NewControlerModule.install(NewControlerModule.java:36)
2024-11-08T13:51:41,183  INFO Injector:89   --> scope: Scopes.NO_SCOPE
2024-11-08T13:51:41,184  INFO Injector:92   --> target: Key[type=org.matsim.core.controler.TerminateAtFixedIterationNumber, annotation=[none]]
2024-11-08T13:51:41,184  INFO Injector:94   ==full==> LinkedKeyBinding{key=Key[type=org.matsim.core.controler.TerminationCriterion, annotation=[none]], source=org.matsim.core.controler.NewControlerModule.install(NewControlerModule.java:36), scope=Scopes.NO_SCOPE, target=Key[type=org.matsim.core.controler.TerminateAtFixedIterationNumber, annotation=[none]]}
2024-11-08T13:51:41,184  INFO Injector:96 
2024-11-08T13:51:41,184  INFO Injector:85 org.matsim.core.controler.MatsimServices 
2024-11-08T13:51:41,184  INFO Injector:86   --> provider: FactoryProxy{key=Key[type=org.matsim.core.controler.MatsimServices, annotation=[none]], provider=com.google.inject.internal.ConstructorBindingImpl$Factory@6bf11a9e}
2024-11-08T13:51:41,184  INFO Injector:87   --> source: org.matsim.core.controler.NewControlerModule.install(NewControlerModule.java:37)
2024-11-08T13:51:41,184  INFO Injector:89   --> scope: Scopes.NO_SCOPE
2024-11-08T13:51:41,184  INFO Injector:92   --> target: Key[type=org.matsim.core.controler.MatsimServicesImpl, annotation=[none]]
2024-11-08T13:51:41,184  INFO Injector:94   ==full==> LinkedKeyBinding{key=Key[type=org.matsim.core.controler.MatsimServices, annotation=[none]], source=org.matsim.core.controler.NewControlerModule.install(NewControlerModule.java:37), scope=Scopes.NO_SCOPE, target=Key[type=org.matsim.core.controler.MatsimServicesImpl, annotation=[none]]}
2024-11-08T13:51:41,184  INFO Injector:96 
2024-11-08T13:51:41,184  INFO Injector:85 org.matsim.core.controler.IterationCounter 
2024-11-08T13:51:41,184  INFO Injector:86   --> provider: FactoryProxy{key=Key[type=org.matsim.core.controler.IterationCounter, annotation=[none]], provider=com.google.inject.internal.ConstructorBindingImpl$Factory@6bf11a9e}
2024-11-08T13:51:41,184  INFO Injector:87   --> source: org.matsim.core.controler.NewControlerModule.install(NewControlerModule.java:39)
2024-11-08T13:51:41,184  INFO Injector:89   --> scope: Scopes.NO_SCOPE
2024-11-08T13:51:41,184  INFO Injector:92   --> target: Key[type=org.matsim.core.controler.MatsimServicesImpl, annotation=[none]]
2024-11-08T13:51:41,184  INFO Injector:94   ==full==> LinkedKeyBinding{key=Key[type=org.matsim.core.controler.IterationCounter, annotation=[none]], source=org.matsim.core.controler.NewControlerModule.install(NewControlerModule.java:39), scope=Scopes.NO_SCOPE, target=Key[type=org.matsim.core.controler.MatsimServicesImpl, annotation=[none]]}
2024-11-08T13:51:41,184  INFO Injector:96 
2024-11-08T13:51:41,184  INFO Injector:85 org.matsim.core.controler.PrepareForSim 
2024-11-08T13:51:41,184  INFO Injector:86   --> provider: FactoryProxy{key=Key[type=org.matsim.core.controler.PrepareForSim, annotation=[none]], provider=com.google.inject.internal.ConstructorBindingImpl$Factory@43028a49}
2024-11-08T13:51:41,185  INFO Injector:87   --> source: org.matsim.core.controler.NewControlerModule.install(NewControlerModule.java:43)
2024-11-08T13:51:41,185  INFO Injector:89   --> scope: Scopes.NO_SCOPE
2024-11-08T13:51:41,185  INFO Injector:92   --> target: Key[type=org.matsim.core.controler.PrepareForSimImpl, annotation=[none]]
2024-11-08T13:51:41,185  INFO Injector:94   ==full==> LinkedKeyBinding{key=Key[type=org.matsim.core.controler.PrepareForSim, annotation=[none]], source=org.matsim.core.controler.NewControlerModule.install(NewControlerModule.java:43), scope=Scopes.NO_SCOPE, target=Key[type=org.matsim.core.controler.PrepareForSimImpl, annotation=[none]]}
2024-11-08T13:51:41,185  INFO Injector:96 
2024-11-08T13:51:41,185  INFO Injector:85 org.matsim.core.controler.PrepareForMobsim 
2024-11-08T13:51:41,185  INFO Injector:86   --> provider: FactoryProxy{key=Key[type=org.matsim.core.controler.PrepareForMobsim, annotation=[none]], provider=com.google.inject.internal.ConstructorBindingImpl$Factory@713e4d3}
2024-11-08T13:51:41,185  INFO Injector:87   --> source: org.matsim.core.controler.NewControlerModule.install(NewControlerModule.java:44)
2024-11-08T13:51:41,185  INFO Injector:89   --> scope: Scopes.NO_SCOPE
2024-11-08T13:51:41,185  INFO Injector:92   --> target: Key[type=org.matsim.core.controler.PrepareForMobsimImpl, annotation=[none]]
2024-11-08T13:51:41,185  INFO Injector:94   ==full==> LinkedKeyBinding{key=Key[type=org.matsim.core.controler.PrepareForMobsim, annotation=[none]], source=org.matsim.core.controler.NewControlerModule.install(NewControlerModule.java:44), scope=Scopes.NO_SCOPE, target=Key[type=org.matsim.core.controler.PrepareForMobsimImpl, annotation=[none]]}
2024-11-08T13:51:41,185  INFO Injector:96 
2024-11-08T13:51:41,185  INFO Injector:85 org.matsim.core.controler.corelisteners.PlansScoring 
2024-11-08T13:51:41,185  INFO Injector:86   --> provider: FactoryProxy{key=Key[type=org.matsim.core.controler.corelisteners.PlansScoring, annotation=[none]], provider=com.google.inject.internal.ConstructorBindingImpl$Factory@49e7bb60[Scopes.SINGLETON]}
2024-11-08T13:51:41,185  INFO Injector:87   --> source: org.matsim.core.scoring.PlansScoringModule.install(PlansScoringModule.java:33)
2024-11-08T13:51:41,185  INFO Injector:89   --> scope: Scopes.NO_SCOPE
2024-11-08T13:51:41,185  INFO Injector:92   --> target: Key[type=org.matsim.core.scoring.PlansScoringImpl, annotation=[none]]
2024-11-08T13:51:41,185  INFO Injector:94   ==full==> LinkedKeyBinding{key=Key[type=org.matsim.core.controler.corelisteners.PlansScoring, annotation=[none]], source=org.matsim.core.scoring.PlansScoringModule.install(PlansScoringModule.java:33), scope=Scopes.NO_SCOPE, target=Key[type=org.matsim.core.scoring.PlansScoringImpl, annotation=[none]]}
2024-11-08T13:51:41,185  INFO Injector:96 
2024-11-08T13:51:41,185  INFO Injector:85 org.matsim.core.scoring.ExperiencedPlansService 
2024-11-08T13:51:41,185  INFO Injector:86   --> provider: FactoryProxy{key=Key[type=org.matsim.core.scoring.ExperiencedPlansService, annotation=[none]], provider=com.google.inject.internal.ConstructorBindingImpl$Factory@2a216d28}[Scopes.SINGLETON]
2024-11-08T13:51:41,185  INFO Injector:87   --> source: org.matsim.core.scoring.PlansScoringModule.install(PlansScoringModule.java:34)
2024-11-08T13:51:41,185  INFO Injector:89   --> scope: eager singleton
2024-11-08T13:51:41,185  INFO Injector:92   --> target: Key[type=org.matsim.core.scoring.ExperiencedPlansServiceImpl, annotation=[none]]
2024-11-08T13:51:41,185  INFO Injector:94   ==full==> LinkedKeyBinding{key=Key[type=org.matsim.core.scoring.ExperiencedPlansService, annotation=[none]], source=org.matsim.core.scoring.PlansScoringModule.install(PlansScoringModule.java:34), scope=eager singleton, target=Key[type=org.matsim.core.scoring.ExperiencedPlansServiceImpl, annotation=[none]]}
2024-11-08T13:51:41,185  INFO Injector:96 
2024-11-08T13:51:41,186  INFO Injector:85 org.matsim.core.scoring.NewScoreAssigner 
2024-11-08T13:51:41,186  INFO Injector:86   --> provider: FactoryProxy{key=Key[type=org.matsim.core.scoring.NewScoreAssigner, annotation=[none]], provider=com.google.inject.internal.ConstructorBindingImpl$Factory@7d26fae7}[Scopes.SINGLETON]
2024-11-08T13:51:41,186  INFO Injector:87   --> source: org.matsim.core.scoring.PlansScoringModule.install(PlansScoringModule.java:35)
2024-11-08T13:51:41,186  INFO Injector:89   --> scope: eager singleton
2024-11-08T13:51:41,186  INFO Injector:92   --> target: Key[type=org.matsim.core.scoring.NewScoreAssignerImpl, annotation=[none]]
2024-11-08T13:51:41,186  INFO Injector:94   ==full==> LinkedKeyBinding{key=Key[type=org.matsim.core.scoring.NewScoreAssigner, annotation=[none]], source=org.matsim.core.scoring.PlansScoringModule.install(PlansScoringModule.java:35), scope=eager singleton, target=Key[type=org.matsim.core.scoring.NewScoreAssignerImpl, annotation=[none]]}
2024-11-08T13:51:41,186  INFO Injector:96 
2024-11-08T13:51:41,186  INFO Injector:85 org.matsim.core.controler.corelisteners.PlansReplanning 
2024-11-08T13:51:41,186  INFO Injector:86   --> provider: FactoryProxy{key=Key[type=org.matsim.core.controler.corelisteners.PlansReplanning, annotation=[none]], provider=com.google.inject.internal.ConstructorBindingImpl$Factory@650bbcec[Scopes.SINGLETON]}
2024-11-08T13:51:41,186  INFO Injector:87   --> source: org.matsim.core.controler.corelisteners.ControlerDefaultCoreListenersModule.install(ControlerDefaultCoreListenersModule.java:38)
2024-11-08T13:51:41,186  INFO Injector:89   --> scope: Scopes.NO_SCOPE
2024-11-08T13:51:41,186  INFO Injector:92   --> target: Key[type=org.matsim.core.controler.corelisteners.PlansReplanningImpl, annotation=[none]]
2024-11-08T13:51:41,186  INFO Injector:94   ==full==> LinkedKeyBinding{key=Key[type=org.matsim.core.controler.corelisteners.PlansReplanning, annotation=[none]], source=org.matsim.core.controler.corelisteners.ControlerDefaultCoreListenersModule.install(ControlerDefaultCoreListenersModule.java:38), scope=Scopes.NO_SCOPE, target=Key[type=org.matsim.core.controler.corelisteners.PlansReplanningImpl, annotation=[none]]}
2024-11-08T13:51:41,186  INFO Injector:96 
2024-11-08T13:51:41,186  INFO Injector:85 org.matsim.core.controler.corelisteners.PlansDumping 
2024-11-08T13:51:41,186  INFO Injector:86   --> provider: FactoryProxy{key=Key[type=org.matsim.core.controler.corelisteners.PlansDumping, annotation=[none]], provider=com.google.inject.internal.ConstructorBindingImpl$Factory@11c33796[Scopes.SINGLETON]}
2024-11-08T13:51:41,186  INFO Injector:87   --> source: org.matsim.core.controler.corelisteners.ControlerDefaultCoreListenersModule.install(ControlerDefaultCoreListenersModule.java:39)
2024-11-08T13:51:41,186  INFO Injector:89   --> scope: Scopes.NO_SCOPE
2024-11-08T13:51:41,186  INFO Injector:92   --> target: Key[type=org.matsim.core.controler.corelisteners.PlansDumpingImpl, annotation=[none]]
2024-11-08T13:51:41,186  INFO Injector:94   ==full==> LinkedKeyBinding{key=Key[type=org.matsim.core.controler.corelisteners.PlansDumping, annotation=[none]], source=org.matsim.core.controler.corelisteners.ControlerDefaultCoreListenersModule.install(ControlerDefaultCoreListenersModule.java:39), scope=Scopes.NO_SCOPE, target=Key[type=org.matsim.core.controler.corelisteners.PlansDumpingImpl, annotation=[none]]}
2024-11-08T13:51:41,186  INFO Injector:96 
2024-11-08T13:51:41,186  INFO Injector:85 org.matsim.core.controler.corelisteners.EventsHandling 
2024-11-08T13:51:41,186  INFO Injector:86   --> provider: FactoryProxy{key=Key[type=org.matsim.core.controler.corelisteners.EventsHandling, annotation=[none]], provider=com.google.inject.internal.ConstructorBindingImpl$Factory@30aa40ab[Scopes.SINGLETON]}
2024-11-08T13:51:41,186  INFO Injector:87   --> source: org.matsim.core.controler.corelisteners.ControlerDefaultCoreListenersModule.install(ControlerDefaultCoreListenersModule.java:40)
2024-11-08T13:51:41,186  INFO Injector:89   --> scope: Scopes.NO_SCOPE
2024-11-08T13:51:41,186  INFO Injector:92   --> target: Key[type=org.matsim.core.controler.corelisteners.EventsHandlingImpl, annotation=[none]]
2024-11-08T13:51:41,187  INFO Injector:94   ==full==> LinkedKeyBinding{key=Key[type=org.matsim.core.controler.corelisteners.EventsHandling, annotation=[none]], source=org.matsim.core.controler.corelisteners.ControlerDefaultCoreListenersModule.install(ControlerDefaultCoreListenersModule.java:40), scope=Scopes.NO_SCOPE, target=Key[type=org.matsim.core.controler.corelisteners.EventsHandlingImpl, annotation=[none]]}
2024-11-08T13:51:41,187  INFO Injector:96 
2024-11-08T13:51:41,187  INFO Injector:85 org.matsim.core.controler.corelisteners.DumpDataAtEnd 
2024-11-08T13:51:41,187  INFO Injector:86   --> provider: FactoryProxy{key=Key[type=org.matsim.core.controler.corelisteners.DumpDataAtEnd, annotation=[none]], provider=com.google.inject.internal.ConstructorBindingImpl$Factory@7a11659b[Scopes.SINGLETON]}
2024-11-08T13:51:41,187  INFO Injector:87   --> source: org.matsim.core.controler.corelisteners.ControlerDefaultCoreListenersModule.install(ControlerDefaultCoreListenersModule.java:41)
2024-11-08T13:51:41,187  INFO Injector:89   --> scope: Scopes.NO_SCOPE
2024-11-08T13:51:41,187  INFO Injector:92   --> target: Key[type=org.matsim.core.controler.corelisteners.DumpDataAtEndImpl, annotation=[none]]
2024-11-08T13:51:41,187  INFO Injector:94   ==full==> LinkedKeyBinding{key=Key[type=org.matsim.core.controler.corelisteners.DumpDataAtEnd, annotation=[none]], source=org.matsim.core.controler.corelisteners.ControlerDefaultCoreListenersModule.install(ControlerDefaultCoreListenersModule.java:41), scope=Scopes.NO_SCOPE, target=Key[type=org.matsim.core.controler.corelisteners.DumpDataAtEndImpl, annotation=[none]]}
2024-11-08T13:51:41,187  INFO Injector:96 
2024-11-08T13:51:41,187  INFO Injector:85 org.matsim.core.api.experimental.events.EventsManager 
2024-11-08T13:51:41,187  INFO Injector:86   --> provider: FactoryProxy{key=Key[type=org.matsim.core.api.experimental.events.EventsManager, annotation=[none]], provider=com.google.inject.internal.ConstructorBindingImpl$Factory@42c54ae9}[Scopes.SINGLETON]
2024-11-08T13:51:41,187  INFO Injector:87   --> source: org.matsim.core.events.EventsManagerModule.install(EventsManagerModule.java:46)
2024-11-08T13:51:41,187  INFO Injector:89   --> scope: Scopes.SINGLETON
2024-11-08T13:51:41,187  INFO Injector:92   --> target: Key[type=org.matsim.core.events.SimStepParallelEventsManagerImpl, annotation=[none]]
2024-11-08T13:51:41,187  INFO Injector:94   ==full==> LinkedKeyBinding{key=Key[type=org.matsim.core.api.experimental.events.EventsManager, annotation=[none]], source=org.matsim.core.events.EventsManagerModule.install(EventsManagerModule.java:46), scope=Scopes.SINGLETON, target=Key[type=org.matsim.core.events.SimStepParallelEventsManagerImpl, annotation=[none]]}
2024-11-08T13:51:41,187  INFO Injector:96 
2024-11-08T13:51:41,187  INFO Injector:85 org.matsim.core.mobsim.qsim.components.QSimComponentsConfig 
2024-11-08T13:51:41,187  INFO Injector:86   --> provider: @Provides org.matsim.core.mobsim.qsim.components.QSimComponentsModule.provideDefaultQSimComponentsConfig(QSimComponentsModule.java:34)[Scopes.SINGLETON]
2024-11-08T13:51:41,187  INFO Injector:87   --> source: public org.matsim.core.mobsim.qsim.components.QSimComponentsConfig org.matsim.core.mobsim.qsim.components.QSimComponentsModule.provideDefaultQSimComponentsConfig(org.matsim.core.config.Config)
2024-11-08T13:51:41,187  INFO Injector:89   --> scope: Scopes.SINGLETON
2024-11-08T13:51:41,187  INFO Injector:94   ==full==> ProviderInstanceBinding{key=Key[type=org.matsim.core.mobsim.qsim.components.QSimComponentsConfig, annotation=[none]], source=public org.matsim.core.mobsim.qsim.components.QSimComponentsConfig org.matsim.core.mobsim.qsim.components.QSimComponentsModule.provideDefaultQSimComponentsConfig(org.matsim.core.config.Config), scope=Scopes.SINGLETON, provider=@Provides org.matsim.core.mobsim.qsim.components.QSimComponentsModule.provideDefaultQSimComponentsConfig(QSimComponentsModule.java:34)}
2024-11-08T13:51:41,188  INFO Injector:96 
2024-11-08T13:51:41,188  INFO Injector:85 org.matsim.core.mobsim.qsim.AbstractQSimModule @com.google.inject.internal.Element(setName=,uniqueId=107, type=MULTIBINDER, keyType=)
2024-11-08T13:51:41,188  INFO Injector:86   --> provider: ConstantFactory{value=org.matsim.core.mobsim.qsim.messagequeueengine.MessageQueueModule@6eb38e22}[Scopes.SINGLETON]
2024-11-08T13:51:41,188  INFO Injector:87   --> source: java.base/java.util.Arrays$ArrayList.forEach(Arrays.java:4305)
2024-11-08T13:51:41,189  INFO Injector:89   --> scope: eager singleton
2024-11-08T13:51:41,189  INFO Injector:94   ==full==> InstanceBinding{key=Key[type=org.matsim.core.mobsim.qsim.AbstractQSimModule, annotation=@com.google.inject.internal.Element(setName=,uniqueId=107, type=MULTIBINDER, keyType=)], source=java.base/java.util.Arrays$ArrayList.forEach(Arrays.java:4305), instance=org.matsim.core.mobsim.qsim.messagequeueengine.MessageQueueModule@6eb38e22}
2024-11-08T13:51:41,189  INFO Injector:96 
2024-11-08T13:51:41,189  INFO Injector:85 org.matsim.core.mobsim.qsim.AbstractQSimModule @com.google.inject.internal.Element(setName=,uniqueId=108, type=MULTIBINDER, keyType=)
2024-11-08T13:51:41,189  INFO Injector:86   --> provider: ConstantFactory{value=org.matsim.core.mobsim.qsim.ActivityEngineModule@1f8aa25a}[Scopes.SINGLETON]
2024-11-08T13:51:41,189  INFO Injector:87   --> source: java.base/java.util.Arrays$ArrayList.forEach(Arrays.java:4305)
2024-11-08T13:51:41,189  INFO Injector:89   --> scope: eager singleton
2024-11-08T13:51:41,189  INFO Injector:94   ==full==> InstanceBinding{key=Key[type=org.matsim.core.mobsim.qsim.AbstractQSimModule, annotation=@com.google.inject.internal.Element(setName=,uniqueId=108, type=MULTIBINDER, keyType=)], source=java.base/java.util.Arrays$ArrayList.forEach(Arrays.java:4305), instance=org.matsim.core.mobsim.qsim.ActivityEngineModule@1f8aa25a}
2024-11-08T13:51:41,189  INFO Injector:96 
2024-11-08T13:51:41,189  INFO Injector:85 org.matsim.core.mobsim.qsim.AbstractQSimModule @com.google.inject.internal.Element(setName=,uniqueId=109, type=MULTIBINDER, keyType=)
2024-11-08T13:51:41,189  INFO Injector:86   --> provider: ConstantFactory{value=org.matsim.core.mobsim.qsim.qnetsimengine.QNetsimEngineModule@65fe4550}[Scopes.SINGLETON]
2024-11-08T13:51:41,189  INFO Injector:87   --> source: java.base/java.util.Arrays$ArrayList.forEach(Arrays.java:4305)
2024-11-08T13:51:41,189  INFO Injector:89   --> scope: eager singleton
2024-11-08T13:51:41,189  INFO Injector:94   ==full==> InstanceBinding{key=Key[type=org.matsim.core.mobsim.qsim.AbstractQSimModule, annotation=@com.google.inject.internal.Element(setName=,uniqueId=109, type=MULTIBINDER, keyType=)], source=java.base/java.util.Arrays$ArrayList.forEach(Arrays.java:4305), instance=org.matsim.core.mobsim.qsim.qnetsimengine.QNetsimEngineModule@65fe4550}
2024-11-08T13:51:41,189  INFO Injector:96 
2024-11-08T13:51:41,189  INFO Injector:85 org.matsim.core.mobsim.qsim.AbstractQSimModule @com.google.inject.internal.Element(setName=,uniqueId=110, type=MULTIBINDER, keyType=)
2024-11-08T13:51:41,189  INFO Injector:86   --> provider: ConstantFactory{value=org.matsim.core.mobsim.qsim.TeleportationModule@25764276}[Scopes.SINGLETON]
2024-11-08T13:51:41,189  INFO Injector:87   --> source: java.base/java.util.Arrays$ArrayList.forEach(Arrays.java:4305)
2024-11-08T13:51:41,189  INFO Injector:89   --> scope: eager singleton
2024-11-08T13:51:41,189  INFO Injector:94   ==full==> InstanceBinding{key=Key[type=org.matsim.core.mobsim.qsim.AbstractQSimModule, annotation=@com.google.inject.internal.Element(setName=,uniqueId=110, type=MULTIBINDER, keyType=)], source=java.base/java.util.Arrays$ArrayList.forEach(Arrays.java:4305), instance=org.matsim.core.mobsim.qsim.TeleportationModule@25764276}
2024-11-08T13:51:41,189  INFO Injector:96 
2024-11-08T13:51:41,189  INFO Injector:85 org.matsim.core.mobsim.qsim.AbstractQSimModule @com.google.inject.internal.Element(setName=,uniqueId=111, type=MULTIBINDER, keyType=)
2024-11-08T13:51:41,189  INFO Injector:86   --> provider: ConstantFactory{value=org.matsim.core.mobsim.qsim.PopulationModule@57c61a64}[Scopes.SINGLETON]
2024-11-08T13:51:41,189  INFO Injector:87   --> source: java.base/java.util.Arrays$ArrayList.forEach(Arrays.java:4305)
2024-11-08T13:51:41,190  INFO Injector:89   --> scope: eager singleton
2024-11-08T13:51:41,190  INFO Injector:94   ==full==> InstanceBinding{key=Key[type=org.matsim.core.mobsim.qsim.AbstractQSimModule, annotation=@com.google.inject.internal.Element(setName=,uniqueId=111, type=MULTIBINDER, keyType=)], source=java.base/java.util.Arrays$ArrayList.forEach(Arrays.java:4305), instance=org.matsim.core.mobsim.qsim.PopulationModule@57c61a64}
2024-11-08T13:51:41,190  INFO Injector:96 
2024-11-08T13:51:41,190  INFO Injector:85 org.matsim.core.mobsim.qsim.AbstractQSimModule @com.google.inject.internal.Element(setName=,uniqueId=112, type=MULTIBINDER, keyType=)
2024-11-08T13:51:41,190  INFO Injector:86   --> provider: ConstantFactory{value=org.matsim.core.mobsim.qsim.changeeventsengine.NetworkChangeEventsModule@1d94fab4}[Scopes.SINGLETON]
2024-11-08T13:51:41,190  INFO Injector:87   --> source: java.base/java.util.Arrays$ArrayList.forEach(Arrays.java:4305)
2024-11-08T13:51:41,190  INFO Injector:89   --> scope: eager singleton
2024-11-08T13:51:41,190  INFO Injector:94   ==full==> InstanceBinding{key=Key[type=org.matsim.core.mobsim.qsim.AbstractQSimModule, annotation=@com.google.inject.internal.Element(setName=,uniqueId=112, type=MULTIBINDER, keyType=)], source=java.base/java.util.Arrays$ArrayList.forEach(Arrays.java:4305), instance=org.matsim.core.mobsim.qsim.changeeventsengine.NetworkChangeEventsModule@1d94fab4}
2024-11-08T13:51:41,190  INFO Injector:96 
2024-11-08T13:51:41,190  INFO Injector:85 org.matsim.core.mobsim.qsim.AbstractQSimModule @com.google.inject.internal.Element(setName=,uniqueId=113, type=MULTIBINDER, keyType=)
2024-11-08T13:51:41,190  INFO Injector:86   --> provider: ConstantFactory{value=org.matsim.core.mobsim.qsim.pt.TransitEngineModule@a57f893}[Scopes.SINGLETON]
2024-11-08T13:51:41,190  INFO Injector:87   --> source: java.base/java.util.Arrays$ArrayList.forEach(Arrays.java:4305)
2024-11-08T13:51:41,190  INFO Injector:89   --> scope: eager singleton
2024-11-08T13:51:41,190  INFO Injector:94   ==full==> InstanceBinding{key=Key[type=org.matsim.core.mobsim.qsim.AbstractQSimModule, annotation=@com.google.inject.internal.Element(setName=,uniqueId=113, type=MULTIBINDER, keyType=)], source=java.base/java.util.Arrays$ArrayList.forEach(Arrays.java:4305), instance=org.matsim.core.mobsim.qsim.pt.TransitEngineModule@a57f893}
2024-11-08T13:51:41,190  INFO Injector:96 
2024-11-08T13:51:41,191  INFO Injector:85 org.matsim.core.mobsim.framework.Mobsim 
2024-11-08T13:51:41,191  INFO Injector:86   --> provider: Key[type=org.matsim.core.mobsim.qsim.QSimProvider, annotation=[none]]
2024-11-08T13:51:41,191  INFO Injector:87   --> source: org.matsim.core.mobsim.qsim.QSimModule.install(QSimModule.java:100)
2024-11-08T13:51:41,191  INFO Injector:89   --> scope: Scopes.NO_SCOPE
2024-11-08T13:51:41,191  INFO Injector:94   ==full==> ProviderKeyBinding{key=Key[type=org.matsim.core.mobsim.framework.Mobsim, annotation=[none]], source=org.matsim.core.mobsim.qsim.QSimModule.install(QSimModule.java:100), scope=Scopes.NO_SCOPE, provider=Key[type=org.matsim.core.mobsim.qsim.QSimProvider, annotation=[none]]}
2024-11-08T13:51:41,191  INFO Injector:96 
2024-11-08T13:51:41,191  INFO Injector:85 org.matsim.core.controler.listener.ControlerListener @com.google.inject.internal.Element(setName=,uniqueId=114, type=MULTIBINDER, keyType=)
2024-11-08T13:51:41,191  INFO Injector:86   --> provider: FactoryProxy{key=Key[type=org.matsim.core.controler.listener.ControlerListener, annotation=@com.google.inject.internal.Element(setName=,uniqueId=114, type=MULTIBINDER, keyType=)], provider=com.google.inject.internal.ConstructorBindingImpl$Factory@5933817c[Scopes.SINGLETON]}
2024-11-08T13:51:41,191  INFO Injector:87   --> source: org.matsim.core.events.MobsimScopeEventHandlingModule.install(MobsimScopeEventHandlingModule.java:39)
2024-11-08T13:51:41,191  INFO Injector:89   --> scope: Scopes.NO_SCOPE
2024-11-08T13:51:41,191  INFO Injector:92   --> target: Key[type=org.matsim.core.events.MobsimScopeEventHandling, annotation=[none]]
2024-11-08T13:51:41,191  INFO Injector:94   ==full==> LinkedKeyBinding{key=Key[type=org.matsim.core.controler.listener.ControlerListener, annotation=@com.google.inject.internal.Element(setName=,uniqueId=114, type=MULTIBINDER, keyType=)], source=org.matsim.core.events.MobsimScopeEventHandlingModule.install(MobsimScopeEventHandlingModule.java:39), scope=Scopes.NO_SCOPE, target=Key[type=org.matsim.core.events.MobsimScopeEventHandling, annotation=[none]]}
2024-11-08T13:51:41,191  INFO Injector:96 
2024-11-08T13:51:41,191  INFO Injector:85 org.matsim.core.mobsim.qsim.AbstractQSimModule @com.google.inject.internal.Element(setName=,uniqueId=115, type=MULTIBINDER, keyType=)
2024-11-08T13:51:41,191  INFO Injector:86   --> provider: ConstantFactory{value=org.matsim.core.events.MobsimScopeEventHandlingModule$1@1da57e5d}[Scopes.SINGLETON]
2024-11-08T13:51:41,191  INFO Injector:87   --> source: org.matsim.core.events.MobsimScopeEventHandlingModule.install(MobsimScopeEventHandlingModule.java:41)
2024-11-08T13:51:41,191  INFO Injector:89   --> scope: eager singleton
2024-11-08T13:51:41,192  INFO Injector:94   ==full==> InstanceBinding{key=Key[type=org.matsim.core.mobsim.qsim.AbstractQSimModule, annotation=@com.google.inject.internal.Element(setName=,uniqueId=115, type=MULTIBINDER, keyType=)], source=org.matsim.core.events.MobsimScopeEventHandlingModule.install(MobsimScopeEventHandlingModule.java:41), instance=org.matsim.core.events.MobsimScopeEventHandlingModule$1@1da57e5d}
2024-11-08T13:51:41,192  INFO Injector:96 
2024-11-08T13:51:41,192  INFO Injector:85 org.matsim.core.trafficmonitoring.TravelTimeCalculator @com.google.inject.name.Named("car")
2024-11-08T13:51:41,192  INFO Injector:86   --> provider: org.matsim.core.trafficmonitoring.TravelTimeCalculatorModule$SingleModeTravelTimeCalculatorProvider@105fc704[Scopes.SINGLETON]
[...]
[WARNING] thread Thread[#234,ForkJoinPool.commonPool-worker-62,5,org.matsim.contrib.ev.example.RunEvExampleWithEvScoring] will linger despite being asked to die via interruption
[WARNING] thread Thread[#235,ForkJoinPool.commonPool-worker-63,5,org.matsim.contrib.ev.example.RunEvExampleWithEvScoring] will linger despite being asked to die via interruption
[WARNING] thread Thread[#237,ForkJoinPool.commonPool-worker-65,5,org.matsim.contrib.ev.example.RunEvExampleWithEvScoring] will linger despite being asked to die via interruption
[WARNING] thread Thread[#238,ForkJoinPool.commonPool-worker-66,5,org.matsim.contrib.ev.example.RunEvExampleWithEvScoring] will linger despite being asked to die via interruption
[WARNING] thread Thread[#239,ForkJoinPool.commonPool-worker-67,5,org.matsim.contrib.ev.example.RunEvExampleWithEvScoring] will linger despite being asked to die via interruption
[WARNING] thread Thread[#240,ForkJoinPool.commonPool-worker-68,5,org.matsim.contrib.ev.example.RunEvExampleWithEvScoring] will linger despite being asked to die via interruption
[WARNING] thread Thread[#241,ForkJoinPool.commonPool-worker-69,5,org.matsim.contrib.ev.example.RunEvExampleWithEvScoring] will linger despite being asked to die via interruption
[WARNING] thread Thread[#242,ForkJoinPool.commonPool-worker-70,5,org.matsim.contrib.ev.example.RunEvExampleWithEvScoring] will linger despite being asked to die via interruption
[WARNING] thread Thread[#244,ForkJoinPool.commonPool-worker-72,5,org.matsim.contrib.ev.example.RunEvExampleWithEvScoring] will linger despite being asked to die via interruption
[WARNING] thread Thread[#243,ForkJoinPool.commonPool-worker-71,5,org.matsim.contrib.ev.example.RunEvExampleWithEvScoring] will linger despite being asked to die via interruption
[WARNING] thread Thread[#245,ForkJoinPool.commonPool-worker-73,5,org.matsim.contrib.ev.example.RunEvExampleWithEvScoring] will linger despite being asked to die via interruption
[WARNING] thread Thread[#246,ForkJoinPool.commonPool-worker-74,5,org.matsim.contrib.ev.example.RunEvExampleWithEvScoring] will linger despite being asked to die via interruption
[WARNING] thread Thread[#229,ForkJoinPool.commonPool-worker-57,5,org.matsim.contrib.ev.example.RunEvExampleWithEvScoring] will linger despite being asked to die via interruption
[WARNING] thread Thread[#250,ForkJoinPool.commonPool-worker-78,5,org.matsim.contrib.ev.example.RunEvExampleWithEvScoring] will linger despite being asked to die via interruption
[WARNING] thread Thread[#232,ForkJoinPool.commonPool-worker-60,5,org.matsim.contrib.ev.example.RunEvExampleWithEvScoring] will linger despite being asked to die via interruption
[WARNING] thread Thread[#252,ForkJoinPool.commonPool-worker-80,5,org.matsim.contrib.ev.example.RunEvExampleWithEvScoring] will linger despite being asked to die via interruption
[WARNING] thread Thread[#253,ForkJoinPool.commonPool-worker-81,5,org.matsim.contrib.ev.example.RunEvExampleWithEvScoring] will linger despite being asked to die via interruption
[WARNING] thread Thread[#254,ForkJoinPool.commonPool-worker-82,5,org.matsim.contrib.ev.example.RunEvExampleWithEvScoring] will linger despite being asked to die via interruption
[WARNING] thread Thread[#255,ForkJoinPool.commonPool-worker-85,5,org.matsim.contrib.ev.example.RunEvExampleWithEvScoring] will linger despite being asked to die via interruption
[WARNING] thread Thread[#256,ForkJoinPool.commonPool-worker-83,5,org.matsim.contrib.ev.example.RunEvExampleWithEvScoring] will linger despite being asked to die via interruption
[WARNING] thread Thread[#257,ForkJoinPool.commonPool-worker-84,5,org.matsim.contrib.ev.example.RunEvExampleWithEvScoring] will linger despite being asked to die via interruption
[WARNING] thread Thread[#258,ForkJoinPool.commonPool-worker-86,5,org.matsim.contrib.ev.example.RunEvExampleWithEvScoring] will linger despite being asked to die via interruption
[WARNING] thread Thread[#259,ForkJoinPool.commonPool-worker-87,5,org.matsim.contrib.ev.example.RunEvExampleWithEvScoring] will linger despite being asked to die via interruption
[WARNING] thread Thread[#260,ForkJoinPool.commonPool-worker-89,5,org.matsim.contrib.ev.example.RunEvExampleWithEvScoring] will linger despite being asked to die via interruption
[WARNING] thread Thread[#261,ForkJoinPool.commonPool-worker-88,5,org.matsim.contrib.ev.example.RunEvExampleWithEvScoring] will linger despite being asked to die via interruption
[WARNING] thread Thread[#262,ForkJoinPool.commonPool-worker-90,5,org.matsim.contrib.ev.example.RunEvExampleWithEvScoring] will linger despite being asked to die via interruption
[WARNING] thread Thread[#263,ForkJoinPool.commonPool-worker-91,5,org.matsim.contrib.ev.example.RunEvExampleWithEvScoring] will linger despite being asked to die via interruption
[WARNING] thread Thread[#264,ForkJoinPool.commonPool-worker-92,5,org.matsim.contrib.ev.example.RunEvExampleWithEvScoring] will linger despite being asked to die via interruption
[WARNING] thread Thread[#265,ForkJoinPool.commonPool-worker-93,5,org.matsim.contrib.ev.example.RunEvExampleWithEvScoring] will linger despite being asked to die via interruption
[WARNING] thread Thread[#266,ForkJoinPool.commonPool-worker-94,5,org.matsim.contrib.ev.example.RunEvExampleWithEvScoring] will linger despite being asked to die via interruption
[WARNING] thread Thread[#267,ForkJoinPool.commonPool-worker-95,5,org.matsim.contrib.ev.example.RunEvExampleWithEvScoring] will linger despite being asked to die via interruption
[WARNING] thread Thread[#268,ForkJoinPool.commonPool-worker-96,5,org.matsim.contrib.ev.example.RunEvExampleWithEvScoring] will linger despite being asked to die via interruption
[WARNING] thread Thread[#269,ForkJoinPool.commonPool-worker-97,5,org.matsim.contrib.ev.example.RunEvExampleWithEvScoring] will linger despite being asked to die via interruption
[WARNING] thread Thread[#270,ForkJoinPool.commonPool-worker-98,5,org.matsim.contrib.ev.example.RunEvExampleWithEvScoring] will linger despite being asked to die via interruption
[WARNING] thread Thread[#271,ForkJoinPool.commonPool-worker-99,5,org.matsim.contrib.ev.example.RunEvExampleWithEvScoring] will linger despite being asked to die via interruption
[WARNING] thread Thread[#272,ForkJoinPool.commonPool-worker-100,5,org.matsim.contrib.ev.example.RunEvExampleWithEvScoring] will linger despite being asked to die via interruption
[WARNING] thread Thread[#273,ForkJoinPool.commonPool-worker-101,5,org.matsim.contrib.ev.example.RunEvExampleWithEvScoring] will linger despite being asked to die via interruption
[WARNING] thread Thread[#274,ForkJoinPool.commonPool-worker-102,5,org.matsim.contrib.ev.example.RunEvExampleWithEvScoring] will linger despite being asked to die via interruption
[WARNING] thread Thread[#275,ForkJoinPool.commonPool-worker-103,5,org.matsim.contrib.ev.example.RunEvExampleWithEvScoring] will linger despite being asked to die via interruption
[WARNING] thread Thread[#276,ForkJoinPool.commonPool-worker-104,5,org.matsim.contrib.ev.example.RunEvExampleWithEvScoring] will linger despite being asked to die via interruption
[WARNING] thread Thread[#278,ForkJoinPool.commonPool-worker-107,5,org.matsim.contrib.ev.example.RunEvExampleWithEvScoring] will linger despite being asked to die via interruption
[WARNING] thread Thread[#281,ForkJoinPool.commonPool-worker-109,5,org.matsim.contrib.ev.example.RunEvExampleWithEvScoring] will linger despite being asked to die via interruption
[WARNING] thread Thread[#282,ForkJoinPool.commonPool-worker-110,5,org.matsim.contrib.ev.example.RunEvExampleWithEvScoring] will linger despite being asked to die via interruption
[WARNING] thread Thread[#283,ForkJoinPool.commonPool-worker-111,5,org.matsim.contrib.ev.example.RunEvExampleWithEvScoring] will linger despite being asked to die via interruption
[WARNING] thread Thread[#280,ForkJoinPool.commonPool-worker-105,5,org.matsim.contrib.ev.example.RunEvExampleWithEvScoring] will linger despite being asked to die via interruption
[WARNING] thread Thread[#279,ForkJoinPool.commonPool-worker-108,5,org.matsim.contrib.ev.example.RunEvExampleWithEvScoring] will linger despite being asked to die via interruption
[WARNING] thread Thread[#277,ForkJoinPool.commonPool-worker-106,5,org.matsim.contrib.ev.example.RunEvExampleWithEvScoring] will linger despite being asked to die via interruption
[WARNING] thread Thread[#285,ForkJoinPool.commonPool-worker-113,5,org.matsim.contrib.ev.example.RunEvExampleWithEvScoring] will linger despite being asked to die via interruption
[WARNING] thread Thread[#286,ForkJoinPool.commonPool-worker-114,5,org.matsim.contrib.ev.example.RunEvExampleWithEvScoring] will linger despite being asked to die via interruption
[WARNING] thread Thread[#287,ForkJoinPool.commonPool-worker-115,5,org.matsim.contrib.ev.example.RunEvExampleWithEvScoring] will linger despite being asked to die via interruption
[WARNING] thread Thread[#288,ForkJoinPool.commonPool-worker-116,5,org.matsim.contrib.ev.example.RunEvExampleWithEvScoring] will linger despite being asked to die via interruption
[WARNING] thread Thread[#289,ForkJoinPool.commonPool-worker-117,5,org.matsim.contrib.ev.example.RunEvExampleWithEvScoring] will linger despite being asked to die via interruption
[WARNING] thread Thread[#290,ForkJoinPool.commonPool-worker-118,5,org.matsim.contrib.ev.example.RunEvExampleWithEvScoring] will linger despite being asked to die via interruption
[WARNING] thread Thread[#291,ForkJoinPool.commonPool-worker-119,5,org.matsim.contrib.ev.example.RunEvExampleWithEvScoring] will linger despite being asked to die via interruption
[WARNING] thread Thread[#292,ForkJoinPool.commonPool-worker-120,5,org.matsim.contrib.ev.example.RunEvExampleWithEvScoring] will linger despite being asked to die via interruption
[WARNING] thread Thread[#293,ForkJoinPool.commonPool-worker-121,5,org.matsim.contrib.ev.example.RunEvExampleWithEvScoring] will linger despite being asked to die via interruption
[WARNING] thread Thread[#294,ForkJoinPool.commonPool-worker-122,5,org.matsim.contrib.ev.example.RunEvExampleWithEvScoring] will linger despite being asked to die via interruption
[WARNING] thread Thread[#295,ForkJoinPool.commonPool-worker-123,5,org.matsim.contrib.ev.example.RunEvExampleWithEvScoring] will linger despite being asked to die via interruption
[WARNING] thread Thread[#296,ForkJoinPool.commonPool-worker-124,5,org.matsim.contrib.ev.example.RunEvExampleWithEvScoring] will linger despite being asked to die via interruption
[WARNING] thread Thread[#297,ForkJoinPool.commonPool-worker-125,5,org.matsim.contrib.ev.example.RunEvExampleWithEvScoring] will linger despite being asked to die via interruption
[WARNING] thread Thread[#298,ForkJoinPool.commonPool-worker-126,5,org.matsim.contrib.ev.example.RunEvExampleWithEvScoring] will linger despite being asked to die via interruption
[WARNING] thread Thread[#299,ForkJoinPool.commonPool-worker-127,5,org.matsim.contrib.ev.example.RunEvExampleWithEvScoring] will linger despite being asked to die via interruption
[WARNING] thread Thread[#311,ForkJoinPool.commonPool-worker-128,5,org.matsim.contrib.ev.example.RunEvExampleWithEvScoring] will linger despite being asked to die via interruption
[WARNING] thread Thread[#314,ForkJoinPool.commonPool-worker-131,5,org.matsim.contrib.ev.example.RunEvExampleWithEvScoring] will linger despite being asked to die via interruption
[WARNING] thread Thread[#312,ForkJoinPool.commonPool-worker-129,5,org.matsim.contrib.ev.example.RunEvExampleWithEvScoring] will linger despite being asked to die via interruption
[WARNING] thread Thread[#315,ForkJoinPool.commonPool-worker-132,5,org.matsim.contrib.ev.example.RunEvExampleWithEvScoring] will linger despite being asked to die via interruption
[WARNING] thread Thread[#313,ForkJoinPool.commonPool-worker-130,5,org.matsim.contrib.ev.example.RunEvExampleWithEvScoring] will linger despite being asked to die via interruption
[WARNING] thread Thread[#316,ForkJoinPool.commonPool-worker-133,5,org.matsim.contrib.ev.example.RunEvExampleWithEvScoring] will linger despite being asked to die via interruption
[WARNING] thread Thread[#329,ForkJoinPool.commonPool-worker-138,5,org.matsim.contrib.ev.example.RunEvExampleWithEvScoring] will linger despite being asked to die via interruption
[WARNING] thread Thread[#326,ForkJoinPool.commonPool-worker-136,5,org.matsim.contrib.ev.example.RunEvExampleWithEvScoring] will linger despite being asked to die via interruption
[WARNING] thread Thread[#327,ForkJoinPool.commonPool-worker-134,5,org.matsim.contrib.ev.example.RunEvExampleWithEvScoring] will linger despite being asked to die via interruption
[WARNING] thread Thread[#325,ForkJoinPool.commonPool-worker-135,5,org.matsim.contrib.ev.example.RunEvExampleWithEvScoring] will linger despite being asked to die via interruption
[WARNING] thread Thread[#328,ForkJoinPool.commonPool-worker-137,5,org.matsim.contrib.ev.example.RunEvExampleWithEvScoring] will linger despite being asked to die via interruption
[WARNING] NOTE: 129 thread(s) did not finish despite being asked to  via interruption. This is not a problem with exec:java, it is a problem with the running code. Although not serious, it should be remedied.
[INFO] ------------------------------------------------------------------------
[INFO] BUILD FAILURE
[INFO] ------------------------------------------------------------------------
[INFO] Total time:  26:51 min
[INFO] Finished at: 2024-11-08T14:18:27-07:00
[INFO] ------------------------------------------------------------------------
[ERROR] Failed to execute goal org.codehaus.mojo:exec-maven-plugin:3.0.0:java (default-cli) on project ev: An exception occured while executing the Java class. No value present -> [Help 1]
org.apache.maven.lifecycle.LifecycleExecutionException: Failed to execute goal org.codehaus.mojo:exec-maven-plugin:3.0.0:java (default-cli) on project ev: An exception occured while executing the Java class. No value present
    at org.apache.maven.lifecycle.internal.MojoExecutor.doExecute2 (MojoExecutor.java:375)
    at org.apache.maven.lifecycle.internal.MojoExecutor.doExecute (MojoExecutor.java:351)
    at org.apache.maven.lifecycle.internal.MojoExecutor.execute (MojoExecutor.java:215)
    at org.apache.maven.lifecycle.internal.MojoExecutor.execute (MojoExecutor.java:171)
    at org.apache.maven.lifecycle.internal.MojoExecutor.execute (MojoExecutor.java:163)
    at org.apache.maven.lifecycle.internal.LifecycleModuleBuilder.buildProject (LifecycleModuleBuilder.java:117)
    at org.apache.maven.lifecycle.internal.LifecycleModuleBuilder.buildProject (LifecycleModuleBuilder.java:81)
    at org.apache.maven.lifecycle.internal.builder.singlethreaded.SingleThreadedBuilder.build (SingleThreadedBuilder.java:56)
    at org.apache.maven.lifecycle.internal.LifecycleStarter.execute (LifecycleStarter.java:128)
    at org.apache.maven.DefaultMaven.doExecute (DefaultMaven.java:299)
    at org.apache.maven.DefaultMaven.doExecute (DefaultMaven.java:193)
    at org.apache.maven.DefaultMaven.execute (DefaultMaven.java:106)
    at org.apache.maven.cli.MavenCli.execute (MavenCli.java:963)
    at org.apache.maven.cli.MavenCli.doMain (MavenCli.java:296)
    at org.apache.maven.cli.MavenCli.main (MavenCli.java:199)
    at jdk.internal.reflect.DirectMethodHandleAccessor.invoke (DirectMethodHandleAccessor.java:103)
    at java.lang.reflect.Method.invoke (Method.java:580)
    at org.codehaus.plexus.classworlds.launcher.Launcher.launchEnhanced (Launcher.java:282)
    at org.codehaus.plexus.classworlds.launcher.Launcher.launch (Launcher.java:225)
    at org.codehaus.plexus.classworlds.launcher.Launcher.mainWithExitCode (Launcher.java:406)
    at org.codehaus.plexus.classworlds.launcher.Launcher.main (Launcher.java:347)
Caused by: org.apache.maven.plugin.MojoExecutionException: An exception occured while executing the Java class. No value present
    at org.codehaus.mojo.exec.ExecJavaMojo.execute (ExecJavaMojo.java:311)
    at org.apache.maven.plugin.DefaultBuildPluginManager.executeMojo (DefaultBuildPluginManager.java:137)
    at org.apache.maven.lifecycle.internal.MojoExecutor.doExecute2 (MojoExecutor.java:370)
    at org.apache.maven.lifecycle.internal.MojoExecutor.doExecute (MojoExecutor.java:351)
    at org.apache.maven.lifecycle.internal.MojoExecutor.execute (MojoExecutor.java:215)
    at org.apache.maven.lifecycle.internal.MojoExecutor.execute (MojoExecutor.java:171)
    at org.apache.maven.lifecycle.internal.MojoExecutor.execute (MojoExecutor.java:163)
    at org.apache.maven.lifecycle.internal.LifecycleModuleBuilder.buildProject (LifecycleModuleBuilder.java:117)
    at org.apache.maven.lifecycle.internal.LifecycleModuleBuilder.buildProject (LifecycleModuleBuilder.java:81)
    at org.apache.maven.lifecycle.internal.builder.singlethreaded.SingleThreadedBuilder.build (SingleThreadedBuilder.java:56)
    at org.apache.maven.lifecycle.internal.LifecycleStarter.execute (LifecycleStarter.java:128)
    at org.apache.maven.DefaultMaven.doExecute (DefaultMaven.java:299)
    at org.apache.maven.DefaultMaven.doExecute (DefaultMaven.java:193)
    at org.apache.maven.DefaultMaven.execute (DefaultMaven.java:106)
    at org.apache.maven.cli.MavenCli.execute (MavenCli.java:963)
    at org.apache.maven.cli.MavenCli.doMain (MavenCli.java:296)
    at org.apache.maven.cli.MavenCli.main (MavenCli.java:199)
    at jdk.internal.reflect.DirectMethodHandleAccessor.invoke (DirectMethodHandleAccessor.java:103)
    at java.lang.reflect.Method.invoke (Method.java:580)
    at org.codehaus.plexus.classworlds.launcher.Launcher.launchEnhanced (Launcher.java:282)
    at org.codehaus.plexus.classworlds.launcher.Launcher.launch (Launcher.java:225)
    at org.codehaus.plexus.classworlds.launcher.Launcher.mainWithExitCode (Launcher.java:406)
    at org.codehaus.plexus.classworlds.launcher.Launcher.main (Launcher.java:347)
Caused by: java.util.NoSuchElementException: No value present
    at java.util.Optional.get (Optional.java:143)
    at org.matsim.contrib.ev.stats.ChargingProceduresCSVWriter.proccessChargingEventSequences (ChargingProceduresCSVWriter.java:87)
    at org.matsim.contrib.ev.stats.ChargingProceduresCSVWriter.notifyIterationEnds (ChargingProceduresCSVWriter.java:63)
    at org.matsim.core.controler.ControlerListenerManagerImpl.fireControlerIterationEndsEvent (ControlerListenerManagerImpl.java:181)
    at org.matsim.core.controler.AbstractController$5.run (AbstractController.java:171)
    at org.matsim.core.controler.AbstractController.iterationStep (AbstractController.java:246)
    at org.matsim.core.controler.AbstractController.iteration (AbstractController.java:167)
    at org.matsim.core.controler.AbstractController.doIterations (AbstractController.java:124)
    at org.matsim.core.controler.AbstractController$1.run (AbstractController.java:84)
    at org.matsim.core.controler.MatsimRuntimeModifications.run (MatsimRuntimeModifications.java:70)
    at org.matsim.core.controler.MatsimRuntimeModifications.run (MatsimRuntimeModifications.java:53)
    at org.matsim.core.controler.AbstractController.run (AbstractController.java:92)
    at org.matsim.core.controler.NewControler.run (NewControler.java:83)
    at org.matsim.core.controler.Controler.run (Controler.java:259)
    at org.matsim.contrib.ev.example.RunEvExampleWithEvScoring.run (RunEvExampleWithEvScoring.java:107)
    at org.matsim.contrib.ev.example.RunEvExampleWithEvScoring.main (RunEvExampleWithEvScoring.java:72)
    at org.codehaus.mojo.exec.ExecJavaMojo$1.run (ExecJavaMojo.java:254)
    at java.lang.Thread.run (Thread.java:1583)
[ERROR] 
[ERROR] Re-run Maven using the -X switch to enable full debug logging.
[ERROR] 
[ERROR] For more information about the errors and possible solutions, please read the following articles:
[ERROR] [Help 1] http://cwiki.apache.org/confluence/display/MAVEN/MojoExecutionException
