[INFO] Error stacktraces are turned on.
[INFO] Scanning for projects...
[INFO] 
[INFO] -----------------------< org.matsim.contrib:ev >------------------------
[INFO] Building ev 2025.0-SNAPSHOT
[INFO]   from pom.xml
[INFO] --------------------------------[ jar ]---------------------------------
[INFO] 
[INFO] --- exec-maven-plugin:3.0.0:java (default-cli) @ ev ---
2024-12-20T07:52:03,617  INFO RunEvExampleWithEvScoring:59 Starting simulation run with the following arguments:
2024-12-20T07:52:03,619  INFO RunEvExampleWithEvScoring:60 args=[./scenarios/utahev/utahevconfig.xml]
2024-12-20T07:52:03,630  INFO IOUtils:224 Resolved ./scenarios/utahev/utahevconfig.xml to ./scenarios/utahev/utahevconfig.xml
2024-12-20T07:52:03,633  INFO Config:550 setting context to [file:/home/isaacp/research/repos/EvMatsim/contribs/ev/]
2024-12-20T07:52:03,667  INFO Version:21 HV000001: Hibernate Validator 8.0.1.Final
2024-12-20T07:52:03,763  INFO MatsimXmlParser:170 starting to parse xml from url file:/home/isaacp/research/repos/EvMatsim/contribs/ev/./scenarios/utahev/utahevconfig.xml ...
2024-12-20T07:52:03,785  INFO ConfigReader:105 using config_v2-reader
2024-12-20T07:52:03,785  INFO MatsimXmlParser:296 Trying to load http://www.matsim.org/files/dtd/config_v2.dtd. In some cases (e.g. network interface up but no connection), this may take a bit.
2024-12-20T07:52:04,154  INFO ScoringConfigGroup$ScoringParameterSet:1501 mode parameters for mode car were just overwritten.
2024-12-20T07:52:04,154  INFO ScoringConfigGroup$ScoringParameterSet:1501 mode parameters for mode walk were just overwritten.
2024-12-20T07:52:04,155  INFO ScoringConfigGroup$ScoringParameterSet:1501 mode parameters for mode bike were just overwritten.
2024-12-20T07:52:04,155  INFO ScoringConfigGroup$ScoringParameterSet:1501 mode parameters for mode ride were just overwritten.
2024-12-20T07:52:04,156  INFO ScoringConfigGroup$ScoringParameterSet:1501 mode parameters for mode other were just overwritten.
2024-12-20T07:52:04,156  INFO ScoringConfigGroup$ScoringParameterSet:1501 mode parameters for mode pt were just overwritten.
2024-12-20T07:52:04,158  INFO Config:550 setting context to [file:/home/isaacp/research/repos/EvMatsim/contribs/ev/./scenarios/utahev/utahevconfig.xml]
2024-12-20T07:52:04,159  INFO CommandLine:511 Received 0 positional command line arguments:
2024-12-20T07:52:04,160  INFO CommandLine:512    
2024-12-20T07:52:04,160  INFO CommandLine:534 Received 0 command line options with 0 prefixes:
2024-12-20T07:52:04,175  INFO ScenarioLoaderImpl:135 loading network from file:/home/isaacp/research/repos/EvMatsim/contribs/ev/scenarios/utahev/utahevnetwork.xml
2024-12-20T07:52:04,176  INFO MatsimXmlParser:170 starting to parse xml from url file:/home/isaacp/research/repos/EvMatsim/contribs/ev/scenarios/utahev/utahevnetwork.xml ...
2024-12-20T07:52:04,236  INFO MatsimNetworkReader:122 using network_v2-reader.
2024-12-20T07:52:04,236  INFO MatsimXmlParser:296 Trying to load http://www.matsim.org/files/dtd/network_v2.dtd. In some cases (e.g. network interface up but no connection), this may take a bit.
2024-12-20T07:52:04,405  INFO NetworkImpl:165  node # 1
2024-12-20T07:52:04,405  INFO NetworkImpl:165  node # 4
2024-12-20T07:52:04,415  INFO NetworkImpl:165  node # 16
2024-12-20T07:52:04,419  INFO NetworkImpl:165  node # 64
2024-12-20T07:52:04,426  INFO NetworkImpl:165  node # 256
2024-12-20T07:52:04,433  INFO NetworkImpl:165  node # 1024
2024-12-20T07:52:04,453  INFO NetworkImpl:165  node # 4096
2024-12-20T07:52:04,508  INFO NetworkImpl:165  node # 16384
2024-12-20T07:52:04,540  INFO NetworkImpl:161  link # 1
2024-12-20T07:52:04,542  INFO NetworkImpl:161  link # 4
2024-12-20T07:52:04,544  INFO NetworkImpl:161  link # 16
2024-12-20T07:52:04,548  INFO NetworkImpl:161  link # 64
2024-12-20T07:52:04,555  INFO NetworkImpl:161  link # 256
2024-12-20T07:52:04,569  INFO NetworkImpl:161  link # 1024
2024-12-20T07:52:04,607  INFO NetworkImpl:161  link # 4096
2024-12-20T07:52:04,718  INFO NetworkImpl:161  link # 16384
2024-12-20T07:52:04,823  INFO ScenarioLoaderImpl:172 no facilities file set in config, therefore not loading any facilities.  This is not a problem except if you are using facilities
2024-12-20T07:52:04,823  INFO ScenarioLoaderImpl:188 no facility-attributes file set in config, not loading any facility attributes
2024-12-20T07:52:04,824  INFO ScenarioLoaderImpl:196 loading population from file:/home/isaacp/research/repos/EvMatsim/contribs/ev/scenarios/utahev/utahevplans.xml
2024-12-20T07:52:04,826  INFO MatsimXmlParser:170 starting to parse xml from url file:/home/isaacp/research/repos/EvMatsim/contribs/ev/scenarios/utahev/utahevplans.xml ...
2024-12-20T07:52:04,828  INFO PopulationReader:150 using plans_v4-reader.
2024-12-20T07:52:04,828  INFO MatsimXmlParser:296 Trying to load http://www.matsim.org/files/dtd/plans_v4.dtd. In some cases (e.g. network interface up but no connection), this may take a bit.
2024-12-20T07:52:05,139  INFO ParallelPopulationReaderMatsimV4:167 Start parallel population reading...
2024-12-20T07:52:05,153  INFO PopulationImpl:107  person # 1
2024-12-20T07:52:05,156  INFO PopulationImpl:107  person # 4
2024-12-20T07:52:05,158  INFO PopulationImpl:107  person # 16
2024-12-20T07:52:05,162  INFO PopulationImpl:107  person # 64
2024-12-20T07:52:05,166  INFO PopulationImpl:107  person # 256
2024-12-20T07:52:05,184  INFO ParallelPopulationReaderMatsimV4:202 Finished parallel population reading...
2024-12-20T07:52:05,185  INFO PopulationUtils:1122  person # 997
2024-12-20T07:52:05,185  INFO ScenarioLoaderImpl:244 no person-attributes file set in config, not loading any person attributes
2024-12-20T07:52:05,185  INFO ScenarioLoaderImpl:258 no households file set in config, not loading households
2024-12-20T07:52:05,185  INFO ScenarioLoaderImpl:292 no transit schedule file set in config, not loading any transit schedule
2024-12-20T07:52:05,185  INFO ScenarioLoaderImpl:333 no transit vehicles file set in config, not loading any transit vehicles
2024-12-20T07:52:05,185  INFO ScenarioLoaderImpl:339 loading vehicles from utahevvehicles.xml
2024-12-20T07:52:05,187  INFO MatsimXmlParser:170 starting to parse xml from url file:/home/isaacp/research/repos/EvMatsim/contribs/ev/scenarios/utahev/utahevvehicles.xml ...
2024-12-20T07:52:05,207  INFO MatsimXmlParser:296 Trying to load http://www.matsim.org/files/dtd/vehicleDefinitions_v2.0.xsd. In some cases (e.g. network interface up but no connection), this may take a bit.
2024-12-20T07:52:05,382  INFO MatsimXmlParser:296 Trying to load http://www.matsim.org/files/dtd/matsimCommon.xsd. In some cases (e.g. network interface up but no connection), this may take a bit.
2024-12-20T07:52:05,547  INFO MatsimXmlParser:296 Trying to load http://www.matsim.org/files/dtd/vehicleDefinitionsEnumTypes.xsd. In some cases (e.g. network interface up but no connection), this may take a bit.
2024-12-20T07:52:05,718  INFO MatsimVehicleReader$VehicleReader:77 Found following schemaLocation in vehicle definition file: http://www.matsim.org/files/dtd http://www.matsim.org/files/dtd/vehicleDefinitions_v2.0.xsd
2024-12-20T07:52:05,718  INFO VehicleReaderV2:24 Using org.matsim.vehicles.VehicleReaderV2
2024-12-20T07:52:05,731  INFO Counter:70 [VehiclesImpl] added vehicle # 1
2024-12-20T07:52:05,731  INFO Counter:70 [VehiclesImpl] added vehicle # 2
2024-12-20T07:52:05,732  INFO Counter:70 [VehiclesImpl] added vehicle # 4
2024-12-20T07:52:05,732  INFO Counter:70 [VehiclesImpl] added vehicle # 8
2024-12-20T07:52:05,733  INFO Counter:70 [VehiclesImpl] added vehicle # 16
2024-12-20T07:52:05,735  INFO Counter:70 [VehiclesImpl] added vehicle # 32
2024-12-20T07:52:05,738  INFO Counter:70 [VehiclesImpl] added vehicle # 64
2024-12-20T07:52:05,743  INFO Counter:70 [VehiclesImpl] added vehicle # 128
2024-12-20T07:52:05,750  INFO Counter:70 [VehiclesImpl] added vehicle # 256
2024-12-20T07:52:05,756  INFO Counter:70 [VehiclesImpl] added vehicle # 512
2024-12-20T07:52:05,770  INFO VspConfigConsistencyCheckerImpl:68 NOT running vsp config consistency check because vsp defaults checking level is set to IGNORE
2024-12-20T07:52:06,317  INFO SimStepParallelEventsManagerImpl:80 number of threads=1
2024-12-20T07:52:06,318  INFO MatsimXmlParser:170 starting to parse xml from url file:/home/isaacp/research/repos/EvMatsim/contribs/ev/scenarios/utahev/utahevchargers.xml ...
2024-12-20T07:52:06,319  INFO MatsimXmlParser:296 Trying to load http://matsim.org/files/dtd/chargers_v1.dtd. In some cases (e.g. network interface up but no connection), this may take a bit.
2024-12-20T07:52:06,662  INFO EventsManagerImpl:138 adding Event-Handler: org.matsim.core.trafficmonitoring.TravelTimeCalculator
2024-12-20T07:52:06,662  INFO EventsManagerImpl:144   org.matsim.api.core.v01.events.handler.LinkEnterEventHandler
2024-12-20T07:52:06,662  INFO EventsManagerImpl:205     > org.matsim.api.core.v01.events.LinkEnterEvent
2024-12-20T07:52:06,663  INFO EventsManagerImpl:144   org.matsim.api.core.v01.events.handler.LinkLeaveEventHandler
2024-12-20T07:52:06,663  INFO EventsManagerImpl:205     > org.matsim.api.core.v01.events.LinkLeaveEvent
2024-12-20T07:52:06,663  INFO EventsManagerImpl:144   org.matsim.api.core.v01.events.handler.VehicleEntersTrafficEventHandler
2024-12-20T07:52:06,663  INFO EventsManagerImpl:205     > org.matsim.api.core.v01.events.VehicleEntersTrafficEvent
2024-12-20T07:52:06,663  INFO EventsManagerImpl:144   org.matsim.api.core.v01.events.handler.VehicleLeavesTrafficEventHandler
2024-12-20T07:52:06,663  INFO EventsManagerImpl:205     > org.matsim.api.core.v01.events.VehicleLeavesTrafficEvent
2024-12-20T07:52:06,663  INFO EventsManagerImpl:144   org.matsim.core.api.experimental.events.handler.VehicleArrivesAtFacilityEventHandler
2024-12-20T07:52:06,663  INFO EventsManagerImpl:205     > org.matsim.core.api.experimental.events.VehicleArrivesAtFacilityEvent
2024-12-20T07:52:06,663  INFO EventsManagerImpl:144   org.matsim.api.core.v01.events.handler.VehicleAbortsEventHandler
2024-12-20T07:52:06,664  INFO EventsManagerImpl:205     > org.matsim.api.core.v01.events.VehicleAbortsEvent
2024-12-20T07:52:06,664  INFO EventsManagerImpl:154 
2024-12-20T07:52:06,664  INFO EventsManagerImpl:138 adding Event-Handler: org.matsim.core.trafficmonitoring.TravelTimeCalculator
2024-12-20T07:52:06,664  INFO EventsManagerImpl:144   org.matsim.api.core.v01.events.handler.LinkEnterEventHandler
2024-12-20T07:52:06,664  INFO EventsManagerImpl:205     > org.matsim.api.core.v01.events.LinkEnterEvent
2024-12-20T07:52:06,664  INFO EventsManagerImpl:144   org.matsim.api.core.v01.events.handler.LinkLeaveEventHandler
2024-12-20T07:52:06,664  INFO EventsManagerImpl:205     > org.matsim.api.core.v01.events.LinkLeaveEvent
2024-12-20T07:52:06,664  INFO EventsManagerImpl:144   org.matsim.api.core.v01.events.handler.VehicleEntersTrafficEventHandler
2024-12-20T07:52:06,664  INFO EventsManagerImpl:205     > org.matsim.api.core.v01.events.VehicleEntersTrafficEvent
2024-12-20T07:52:06,664  INFO EventsManagerImpl:144   org.matsim.api.core.v01.events.handler.VehicleLeavesTrafficEventHandler
2024-12-20T07:52:06,664  INFO EventsManagerImpl:205     > org.matsim.api.core.v01.events.VehicleLeavesTrafficEvent
2024-12-20T07:52:06,664  INFO EventsManagerImpl:144   org.matsim.core.api.experimental.events.handler.VehicleArrivesAtFacilityEventHandler
2024-12-20T07:52:06,664  INFO EventsManagerImpl:205     > org.matsim.core.api.experimental.events.VehicleArrivesAtFacilityEvent
2024-12-20T07:52:06,664  INFO EventsManagerImpl:144   org.matsim.api.core.v01.events.handler.VehicleAbortsEventHandler
2024-12-20T07:52:06,664  INFO EventsManagerImpl:205     > org.matsim.api.core.v01.events.VehicleAbortsEvent
2024-12-20T07:52:06,664  INFO EventsManagerImpl:154 
2024-12-20T07:52:06,665  INFO OutputDirectoryHierarchy:278 ###########################################################
2024-12-20T07:52:06,665  INFO OutputDirectoryHierarchy:279 ### THE CONTROLER WILL DELETE THE EXISTING OUTPUT DIRECTORY:
2024-12-20T07:52:06,665  INFO OutputDirectoryHierarchy:280 ### ./scenarios/utahev/output
2024-12-20T07:52:06,665  INFO OutputDirectoryHierarchy:282 ###########################################################
2024-12-20T07:52:06,683  INFO StrategyManager:77 global innovation switch off after iteration: 0
2024-12-20T07:52:06,685  INFO GenericStrategyManagerImpl:330 added change request:  iteration=1 newWeight=0.0 strategy=RandomPlanSelector_ReRoute
2024-12-20T07:52:06,685  INFO GenericStrategyManagerImpl:362 setting PlanSelectorForRemoval to class org.matsim.core.replanning.selectors.WorstPlanForRemovalSelector
2024-12-20T07:52:06,687  INFO EventsManagerImpl:138 adding Event-Handler: org.matsim.core.scoring.ScoringFunctionsForPopulation
2024-12-20T07:52:06,687  INFO EventsManagerImpl:144   org.matsim.core.events.handler.BasicEventHandler
2024-12-20T07:52:06,687  INFO EventsManagerImpl:205     > org.matsim.api.core.v01.events.Event
2024-12-20T07:52:06,687  INFO EventsManagerImpl:154 
2024-12-20T07:52:06,687  INFO EventsManagerImpl:138 adding Event-Handler: org.matsim.core.scoring.ScoringFunctionsForPopulation
2024-12-20T07:52:06,688  INFO EventsManagerImpl:144   org.matsim.core.events.handler.BasicEventHandler
2024-12-20T07:52:06,688  INFO EventsManagerImpl:205     > org.matsim.api.core.v01.events.Event
2024-12-20T07:52:06,688  INFO EventsManagerImpl:154 
2024-12-20T07:52:06,690  INFO MatsimXmlParser:170 starting to parse xml from url file:/home/isaacp/research/repos/EvMatsim/contribs/ev/scenarios/utahev/utahevcounts.xml ...
2024-12-20T07:52:06,694  INFO MatsimCountsReader:107 using counts_v1-reader.
2024-12-20T07:52:06,694  INFO MatsimXmlParser:296 Trying to load http://matsim.org/files/dtd/counts_v1.xsd. In some cases (e.g. network interface up but no connection), this may take a bit.
2024-12-20T07:52:06,878  INFO CalcLinkStats:151  resetting `count' to zero.  This info is here since we want to check when this is happening during normal simulation runs.  kai, jan'11
2024-12-20T07:52:06,902  INFO EventsManagerImpl:138 adding Event-Handler: org.matsim.analysis.VolumesAnalyzer
2024-12-20T07:52:06,902  INFO EventsManagerImpl:144   org.matsim.api.core.v01.events.handler.LinkLeaveEventHandler
2024-12-20T07:52:06,902  INFO EventsManagerImpl:205     > org.matsim.api.core.v01.events.LinkLeaveEvent
2024-12-20T07:52:06,902  INFO EventsManagerImpl:144   org.matsim.api.core.v01.events.handler.VehicleEntersTrafficEventHandler
2024-12-20T07:52:06,902  INFO EventsManagerImpl:205     > org.matsim.api.core.v01.events.VehicleEntersTrafficEvent
2024-12-20T07:52:06,902  INFO EventsManagerImpl:154 
2024-12-20T07:52:06,902  INFO EventsManagerImpl:138 adding Event-Handler: org.matsim.analysis.VolumesAnalyzer
2024-12-20T07:52:06,902  INFO EventsManagerImpl:144   org.matsim.api.core.v01.events.handler.LinkLeaveEventHandler
2024-12-20T07:52:06,902  INFO EventsManagerImpl:205     > org.matsim.api.core.v01.events.LinkLeaveEvent
2024-12-20T07:52:06,902  INFO EventsManagerImpl:144   org.matsim.api.core.v01.events.handler.VehicleEntersTrafficEventHandler
2024-12-20T07:52:06,902  INFO EventsManagerImpl:205     > org.matsim.api.core.v01.events.VehicleEntersTrafficEvent
2024-12-20T07:52:06,902  INFO EventsManagerImpl:154 
2024-12-20T07:52:06,903  INFO EventsManagerImpl:138 adding Event-Handler: org.matsim.analysis.LegHistogram
2024-12-20T07:52:06,903  INFO EventsManagerImpl:144   org.matsim.api.core.v01.events.handler.PersonDepartureEventHandler
2024-12-20T07:52:06,903  INFO EventsManagerImpl:205     > org.matsim.api.core.v01.events.PersonDepartureEvent
2024-12-20T07:52:06,903  INFO EventsManagerImpl:144   org.matsim.api.core.v01.events.handler.PersonArrivalEventHandler
2024-12-20T07:52:06,903  INFO EventsManagerImpl:205     > org.matsim.api.core.v01.events.PersonArrivalEvent
2024-12-20T07:52:06,903  INFO EventsManagerImpl:144   org.matsim.api.core.v01.events.handler.PersonStuckEventHandler
2024-12-20T07:52:06,903  INFO EventsManagerImpl:205     > org.matsim.api.core.v01.events.PersonStuckEvent
2024-12-20T07:52:06,903  INFO EventsManagerImpl:154 
2024-12-20T07:52:06,903  INFO EventsManagerImpl:138 adding Event-Handler: org.matsim.analysis.LegHistogram
2024-12-20T07:52:06,903  INFO EventsManagerImpl:144   org.matsim.api.core.v01.events.handler.PersonDepartureEventHandler
2024-12-20T07:52:06,903  INFO EventsManagerImpl:205     > org.matsim.api.core.v01.events.PersonDepartureEvent
2024-12-20T07:52:06,903  INFO EventsManagerImpl:144   org.matsim.api.core.v01.events.handler.PersonArrivalEventHandler
2024-12-20T07:52:06,903  INFO EventsManagerImpl:205     > org.matsim.api.core.v01.events.PersonArrivalEvent
2024-12-20T07:52:06,903  INFO EventsManagerImpl:144   org.matsim.api.core.v01.events.handler.PersonStuckEventHandler
2024-12-20T07:52:06,903  INFO EventsManagerImpl:205     > org.matsim.api.core.v01.events.PersonStuckEvent
2024-12-20T07:52:06,904  INFO EventsManagerImpl:154 
2024-12-20T07:52:06,904  INFO EventsManagerImpl:138 adding Event-Handler: org.matsim.analysis.CalcLegTimes
2024-12-20T07:52:06,904  INFO EventsManagerImpl:144   org.matsim.api.core.v01.events.handler.PersonDepartureEventHandler
2024-12-20T07:52:06,904  INFO EventsManagerImpl:205     > org.matsim.api.core.v01.events.PersonDepartureEvent
2024-12-20T07:52:06,904  INFO EventsManagerImpl:144   org.matsim.api.core.v01.events.handler.PersonArrivalEventHandler
2024-12-20T07:52:06,904  INFO EventsManagerImpl:205     > org.matsim.api.core.v01.events.PersonArrivalEvent
2024-12-20T07:52:06,904  INFO EventsManagerImpl:144   org.matsim.api.core.v01.events.handler.ActivityEndEventHandler
2024-12-20T07:52:06,904  INFO EventsManagerImpl:205     > org.matsim.api.core.v01.events.ActivityEndEvent
2024-12-20T07:52:06,904  INFO EventsManagerImpl:144   org.matsim.api.core.v01.events.handler.ActivityStartEventHandler
2024-12-20T07:52:06,904  INFO EventsManagerImpl:205     > org.matsim.api.core.v01.events.ActivityStartEvent
2024-12-20T07:52:06,904  INFO EventsManagerImpl:154 
2024-12-20T07:52:06,904  INFO EventsManagerImpl:138 adding Event-Handler: org.matsim.analysis.CalcLegTimes
2024-12-20T07:52:06,904  INFO EventsManagerImpl:144   org.matsim.api.core.v01.events.handler.PersonDepartureEventHandler
2024-12-20T07:52:06,904  INFO EventsManagerImpl:205     > org.matsim.api.core.v01.events.PersonDepartureEvent
2024-12-20T07:52:06,904  INFO EventsManagerImpl:144   org.matsim.api.core.v01.events.handler.PersonArrivalEventHandler
2024-12-20T07:52:06,905  INFO EventsManagerImpl:205     > org.matsim.api.core.v01.events.PersonArrivalEvent
2024-12-20T07:52:06,905  INFO EventsManagerImpl:144   org.matsim.api.core.v01.events.handler.ActivityEndEventHandler
2024-12-20T07:52:06,905  INFO EventsManagerImpl:205     > org.matsim.api.core.v01.events.ActivityEndEvent
2024-12-20T07:52:06,905  INFO EventsManagerImpl:144   org.matsim.api.core.v01.events.handler.ActivityStartEventHandler
2024-12-20T07:52:06,905  INFO EventsManagerImpl:205     > org.matsim.api.core.v01.events.ActivityStartEvent
2024-12-20T07:52:06,905  INFO EventsManagerImpl:154 
2024-12-20T07:52:06,913  INFO AbstractController:57 Used Controler-Class: org.matsim.core.controler.NewControler
2024-12-20T07:52:06,913  INFO Config:510 ConfigConsistencyChecker with runtime type=class org.matsim.core.config.consistency.ConfigConsistencyCheckerImpl was already added; not adding it a second time
2024-12-20T07:52:06,913  INFO EventsManagerImpl:138 adding Event-Handler: org.matsim.contrib.ev.charging.ChargingEventSequenceCollector
2024-12-20T07:52:06,913  INFO EventsManagerImpl:144   org.matsim.contrib.ev.charging.QueuedAtChargerEventHandler
2024-12-20T07:52:06,914  INFO EventsManagerImpl:205     > org.matsim.contrib.ev.charging.QueuedAtChargerEvent
2024-12-20T07:52:06,914  INFO EventsManagerImpl:144   org.matsim.contrib.ev.charging.QuitQueueAtChargerEventHandler
2024-12-20T07:52:06,914  INFO EventsManagerImpl:205     > org.matsim.contrib.ev.charging.QuitQueueAtChargerEvent
2024-12-20T07:52:06,914  INFO EventsManagerImpl:144   org.matsim.contrib.ev.charging.ChargingStartEventHandler
2024-12-20T07:52:06,914  INFO EventsManagerImpl:205     > org.matsim.contrib.ev.charging.ChargingStartEvent
2024-12-20T07:52:06,914  INFO EventsManagerImpl:144   org.matsim.contrib.ev.charging.ChargingEndEventHandler
2024-12-20T07:52:06,914  INFO EventsManagerImpl:205     > org.matsim.contrib.ev.charging.ChargingEndEvent
2024-12-20T07:52:06,914  INFO EventsManagerImpl:154 
2024-12-20T07:52:06,914  INFO EventsManagerImpl:138 adding Event-Handler: org.matsim.contrib.ev.charging.ChargingEventSequenceCollector
2024-12-20T07:52:06,914  INFO EventsManagerImpl:144   org.matsim.contrib.ev.charging.QueuedAtChargerEventHandler
2024-12-20T07:52:06,914  INFO EventsManagerImpl:205     > org.matsim.contrib.ev.charging.QueuedAtChargerEvent
2024-12-20T07:52:06,914  INFO EventsManagerImpl:144   org.matsim.contrib.ev.charging.QuitQueueAtChargerEventHandler
2024-12-20T07:52:06,914  INFO EventsManagerImpl:205     > org.matsim.contrib.ev.charging.QuitQueueAtChargerEvent
2024-12-20T07:52:06,914  INFO EventsManagerImpl:144   org.matsim.contrib.ev.charging.ChargingStartEventHandler
2024-12-20T07:52:06,914  INFO EventsManagerImpl:205     > org.matsim.contrib.ev.charging.ChargingStartEvent
2024-12-20T07:52:06,915  INFO EventsManagerImpl:144   org.matsim.contrib.ev.charging.ChargingEndEventHandler
2024-12-20T07:52:06,915  INFO EventsManagerImpl:205     > org.matsim.contrib.ev.charging.ChargingEndEvent
2024-12-20T07:52:06,915  INFO EventsManagerImpl:154 
2024-12-20T07:52:06,915  INFO Injector:81 === printInjector start ===
2024-12-20T07:52:06,915  INFO Injector:85 org.matsim.contrib.ev.fleet.ElectricFleet 
2024-12-20T07:52:06,915  INFO Injector:86   --> provider: org.matsim.contrib.ev.example.RunEvExampleWithEvScoring$1$1@4958fa79[Scopes.SINGLETON]
2024-12-20T07:52:06,915  INFO Injector:87   --> source: org.matsim.contrib.ev.example.RunEvExampleWithEvScoring$1.install(RunEvExampleWithEvScoring.java:82)
2024-12-20T07:52:06,915  INFO Injector:89   --> scope: eager singleton
2024-12-20T07:52:06,929  INFO Injector:94   ==full==> ProviderInstanceBinding{key=Key[type=org.matsim.contrib.ev.fleet.ElectricFleet, annotation=[none]], source=org.matsim.contrib.ev.example.RunEvExampleWithEvScoring$1.install(RunEvExampleWithEvScoring.java:82), scope=eager singleton, provider=org.matsim.contrib.ev.example.RunEvExampleWithEvScoring$1$1@4958fa79}
2024-12-20T07:52:06,929  INFO Injector:96 
2024-12-20T07:52:06,929  INFO Injector:85 org.matsim.core.scoring.ScoringFunctionFactory 
2024-12-20T07:52:06,929  INFO Injector:86   --> provider: FactoryProxy{key=Key[type=org.matsim.core.scoring.ScoringFunctionFactory, annotation=[none]], provider=com.google.inject.internal.ConstructorBindingImpl$Factory@7e71c939}
2024-12-20T07:52:06,929  INFO Injector:87   --> source: org.matsim.contrib.ev.example.RunEvExampleWithEvScoring$1.install(RunEvExampleWithEvScoring.java:95)
2024-12-20T07:52:06,929  INFO Injector:89   --> scope: Scopes.NO_SCOPE
2024-12-20T07:52:06,929  INFO Injector:92   --> target: Key[type=org.matsim.contrib.ev.scoring.EvScoringFunctionFactory, annotation=[none]]
2024-12-20T07:52:06,929  INFO Injector:94   ==full==> LinkedKeyBinding{key=Key[type=org.matsim.core.scoring.ScoringFunctionFactory, annotation=[none]], source=org.matsim.contrib.ev.example.RunEvExampleWithEvScoring$1.install(RunEvExampleWithEvScoring.java:95), scope=Scopes.NO_SCOPE, target=Key[type=org.matsim.contrib.ev.scoring.EvScoringFunctionFactory, annotation=[none]]}
2024-12-20T07:52:06,930  INFO Injector:96 
2024-12-20T07:52:06,930  INFO Injector:85 org.matsim.contrib.ev.fleet.ElectricFleetSpecification 
2024-12-20T07:52:06,930  INFO Injector:86   --> provider: org.matsim.contrib.ev.fleet.ElectricFleetModule$1@306f742c[Scopes.SINGLETON]
2024-12-20T07:52:06,930  INFO Injector:87   --> source: org.matsim.contrib.ev.fleet.ElectricFleetModule.install(ElectricFleetModule.java:47)
2024-12-20T07:52:06,930  INFO Injector:89   --> scope: eager singleton
2024-12-20T07:52:06,930  INFO Injector:94   ==full==> ProviderInstanceBinding{key=Key[type=org.matsim.contrib.ev.fleet.ElectricFleetSpecification, annotation=[none]], source=org.matsim.contrib.ev.fleet.ElectricFleetModule.install(ElectricFleetModule.java:47), scope=eager singleton, provider=org.matsim.contrib.ev.fleet.ElectricFleetModule$1@306f742c}
2024-12-20T07:52:06,930  INFO Injector:96 
2024-12-20T07:52:06,930  INFO Injector:85 org.matsim.core.mobsim.qsim.AbstractQSimModule @com.google.inject.internal.Element(setName=,uniqueId=126, type=MULTIBINDER, keyType=)
2024-12-20T07:52:06,930  INFO Injector:86   --> provider: ConstantFactory{value=org.matsim.contrib.ev.fleet.ElectricFleetModule$2@5e5321f6}[Scopes.SINGLETON]
2024-12-20T07:52:06,930  INFO Injector:87   --> source: org.matsim.contrib.ev.fleet.ElectricFleetModule.install(ElectricFleetModule.java:57)
2024-12-20T07:52:06,930  INFO Injector:89   --> scope: eager singleton
2024-12-20T07:52:06,930  INFO Injector:94   ==full==> InstanceBinding{key=Key[type=org.matsim.core.mobsim.qsim.AbstractQSimModule, annotation=@com.google.inject.internal.Element(setName=,uniqueId=126, type=MULTIBINDER, keyType=)], source=org.matsim.contrib.ev.fleet.ElectricFleetModule.install(ElectricFleetModule.java:57), instance=org.matsim.contrib.ev.fleet.ElectricFleetModule$2@5e5321f6}
2024-12-20T07:52:06,930  INFO Injector:96 
2024-12-20T07:52:06,930  INFO Injector:85 org.matsim.api.core.v01.network.Network @com.google.inject.name.Named("chargers")
2024-12-20T07:52:06,939  INFO Injector:86   --> provider: FactoryProxy{key=Key[type=org.matsim.api.core.v01.network.Network, annotation=@com.google.inject.name.Named("chargers")], provider=@Provides org.matsim.core.scenario.ScenarioByInstanceModule.provideNetwork(ScenarioByInstanceModule.java:60)}[Scopes.SINGLETON]
2024-12-20T07:52:06,939  INFO Injector:87   --> source: org.matsim.contrib.ev.infrastructure.ChargingInfrastructureModule.install(ChargingInfrastructureModule.java:56)
2024-12-20T07:52:06,939  INFO Injector:89   --> scope: eager singleton
2024-12-20T07:52:06,939  INFO Injector:92   --> target: Key[type=org.matsim.api.core.v01.network.Network, annotation=[none]]
2024-12-20T07:52:06,939  INFO Injector:94   ==full==> LinkedKeyBinding{key=Key[type=org.matsim.api.core.v01.network.Network, annotation=@com.google.inject.name.Named("chargers")], source=org.matsim.contrib.ev.infrastructure.ChargingInfrastructureModule.install(ChargingInfrastructureModule.java:56), scope=eager singleton, target=Key[type=org.matsim.api.core.v01.network.Network, annotation=[none]]}
2024-12-20T07:52:06,939  INFO Injector:96 
2024-12-20T07:52:06,939  INFO Injector:85 org.matsim.contrib.ev.infrastructure.ChargingInfrastructureSpecification 
2024-12-20T07:52:06,939  INFO Injector:86   --> provider: org.matsim.contrib.ev.infrastructure.ChargingInfrastructureModule$$Lambda/0x00007f2ba0492050@54b345f0[Scopes.SINGLETON]
2024-12-20T07:52:06,940  INFO Injector:87   --> source: org.matsim.contrib.ev.infrastructure.ChargingInfrastructureModule.install(ChargingInfrastructureModule.java:58)
2024-12-20T07:52:06,940  INFO Injector:89   --> scope: eager singleton
2024-12-20T07:52:06,940  INFO Injector:94   ==full==> ProviderInstanceBinding{key=Key[type=org.matsim.contrib.ev.infrastructure.ChargingInfrastructureSpecification, annotation=[none]], source=org.matsim.contrib.ev.infrastructure.ChargingInfrastructureModule.install(ChargingInfrastructureModule.java:58), scope=eager singleton, provider=org.matsim.contrib.ev.infrastructure.ChargingInfrastructureModule$$Lambda/0x00007f2ba0492050@54b345f0}
2024-12-20T07:52:06,940  INFO Injector:96 
2024-12-20T07:52:06,940  INFO Injector:85 org.matsim.core.mobsim.qsim.AbstractQSimModule @com.google.inject.internal.Element(setName=,uniqueId=127, type=MULTIBINDER, keyType=)
2024-12-20T07:52:06,940  INFO Injector:86   --> provider: ConstantFactory{value=org.matsim.contrib.ev.infrastructure.ChargingInfrastructureModule$1@404bd3dc}[Scopes.SINGLETON]
2024-12-20T07:52:06,940  INFO Injector:87   --> source: org.matsim.contrib.ev.infrastructure.ChargingInfrastructureModule.install(ChargingInfrastructureModule.java:65)
2024-12-20T07:52:06,940  INFO Injector:89   --> scope: eager singleton
2024-12-20T07:52:06,940  INFO Injector:94   ==full==> InstanceBinding{key=Key[type=org.matsim.core.mobsim.qsim.AbstractQSimModule, annotation=@com.google.inject.internal.Element(setName=,uniqueId=127, type=MULTIBINDER, keyType=)], source=org.matsim.contrib.ev.infrastructure.ChargingInfrastructureModule.install(ChargingInfrastructureModule.java:65), instance=org.matsim.contrib.ev.infrastructure.ChargingInfrastructureModule$1@404bd3dc}
2024-12-20T07:52:06,940  INFO Injector:96 
2024-12-20T07:52:06,940  INFO Injector:85 org.matsim.contrib.ev.charging.ChargingLogic$Factory 
2024-12-20T07:52:06,940  INFO Injector:86   --> provider: org.matsim.contrib.ev.charging.ChargingModule$1@359eb2ee
2024-12-20T07:52:06,940  INFO Injector:87   --> source: org.matsim.contrib.ev.charging.ChargingModule.install(ChargingModule.java:49)
2024-12-20T07:52:06,940  INFO Injector:89   --> scope: Scopes.NO_SCOPE
2024-12-20T07:52:06,940  INFO Injector:94   ==full==> ProviderInstanceBinding{key=Key[type=org.matsim.contrib.ev.charging.ChargingLogic$Factory, annotation=[none]], source=org.matsim.contrib.ev.charging.ChargingModule.install(ChargingModule.java:49), scope=Scopes.NO_SCOPE, provider=org.matsim.contrib.ev.charging.ChargingModule$1@359eb2ee}
2024-12-20T07:52:06,940  INFO Injector:96 
2024-12-20T07:52:06,940  INFO Injector:85 org.matsim.contrib.ev.charging.ChargingPower$Factory 
2024-12-20T07:52:06,940  INFO Injector:86   --> provider: ConstantFactory{value=org.matsim.contrib.ev.charging.ChargingModule$$Lambda/0x00007f2ba04933c8@1da5ae2b}[Scopes.SINGLETON]
2024-12-20T07:52:06,941  INFO Injector:87   --> source: org.matsim.contrib.ev.charging.ChargingModule.install(ChargingModule.java:57)
2024-12-20T07:52:06,941  INFO Injector:89   --> scope: eager singleton
2024-12-20T07:52:06,941  INFO Injector:94   ==full==> InstanceBinding{key=Key[type=org.matsim.contrib.ev.charging.ChargingPower$Factory, annotation=[none]], source=org.matsim.contrib.ev.charging.ChargingModule.install(ChargingModule.java:57), instance=org.matsim.contrib.ev.charging.ChargingModule$$Lambda/0x00007f2ba04933c8@1da5ae2b}
2024-12-20T07:52:06,941  INFO Injector:96 
2024-12-20T07:52:06,941  INFO Injector:85 org.matsim.core.mobsim.qsim.AbstractQSimModule @com.google.inject.internal.Element(setName=,uniqueId=128, type=MULTIBINDER, keyType=)
2024-12-20T07:52:06,941  INFO Injector:86   --> provider: ConstantFactory{value=org.matsim.contrib.ev.charging.ChargingModule$2@7058cc75}[Scopes.SINGLETON]
2024-12-20T07:52:06,941  INFO Injector:87   --> source: org.matsim.contrib.ev.charging.ChargingModule.install(ChargingModule.java:59)
2024-12-20T07:52:06,941  INFO Injector:89   --> scope: eager singleton
2024-12-20T07:52:06,941  INFO Injector:94   ==full==> InstanceBinding{key=Key[type=org.matsim.core.mobsim.qsim.AbstractQSimModule, annotation=@com.google.inject.internal.Element(setName=,uniqueId=128, type=MULTIBINDER, keyType=)], source=org.matsim.contrib.ev.charging.ChargingModule.install(ChargingModule.java:59), instance=org.matsim.contrib.ev.charging.ChargingModule$2@7058cc75}
2024-12-20T07:52:06,941  INFO Injector:96 
2024-12-20T07:52:06,941  INFO Injector:85 org.matsim.contrib.ev.discharging.DriveEnergyConsumption$Factory 
2024-12-20T07:52:06,941  INFO Injector:86   --> provider: ConstantFactory{value=org.matsim.contrib.ev.discharging.DischargingModule$$Lambda/0x00007f2ba0493b30@dfa06ae}[Scopes.SINGLETON]
2024-12-20T07:52:06,941  INFO Injector:87   --> source: org.matsim.contrib.ev.discharging.DischargingModule.install(DischargingModule.java:36)
2024-12-20T07:52:06,942  INFO Injector:89   --> scope: eager singleton
2024-12-20T07:52:06,942  INFO Injector:94   ==full==> InstanceBinding{key=Key[type=org.matsim.contrib.ev.discharging.DriveEnergyConsumption$Factory, annotation=[none]], source=org.matsim.contrib.ev.discharging.DischargingModule.install(DischargingModule.java:36), instance=org.matsim.contrib.ev.discharging.DischargingModule$$Lambda/0x00007f2ba0493b30@dfa06ae}
2024-12-20T07:52:06,942  INFO Injector:96 
2024-12-20T07:52:06,942  INFO Injector:85 org.matsim.contrib.ev.temperature.TemperatureService 
2024-12-20T07:52:06,942  INFO Injector:86   --> provider: ConstantFactory{value=org.matsim.contrib.ev.discharging.DischargingModule$$Lambda/0x00007f2ba0496000@1094eb60}[Scopes.SINGLETON]
2024-12-20T07:52:06,942  INFO Injector:87   --> source: org.matsim.contrib.ev.discharging.DischargingModule.install(DischargingModule.java:37)
2024-12-20T07:52:06,942  INFO Injector:89   --> scope: eager singleton
2024-12-20T07:52:06,942  INFO Injector:94   ==full==> InstanceBinding{key=Key[type=org.matsim.contrib.ev.temperature.TemperatureService, annotation=[none]], source=org.matsim.contrib.ev.discharging.DischargingModule.install(DischargingModule.java:37), instance=org.matsim.contrib.ev.discharging.DischargingModule$$Lambda/0x00007f2ba0496000@1094eb60}
2024-12-20T07:52:06,942  INFO Injector:96 
2024-12-20T07:52:06,942  INFO Injector:85 org.matsim.contrib.ev.discharging.AuxEnergyConsumption$Factory 
2024-12-20T07:52:06,942  INFO Injector:86   --> provider: FactoryProxy{key=Key[type=org.matsim.contrib.ev.discharging.AuxEnergyConsumption$Factory, annotation=[none]], provider=com.google.inject.internal.ConstructorBindingImpl$Factory@5e46b047}[Scopes.SINGLETON]
2024-12-20T07:52:06,942  INFO Injector:87   --> source: org.matsim.contrib.ev.discharging.DischargingModule.install(DischargingModule.java:38)
2024-12-20T07:52:06,942  INFO Injector:89   --> scope: Scopes.SINGLETON
2024-12-20T07:52:06,942  INFO Injector:92   --> target: Key[type=org.matsim.contrib.ev.discharging.OhdeSlaskiAuxEnergyConsumption$Factory, annotation=[none]]
2024-12-20T07:52:06,942  INFO Injector:94   ==full==> LinkedKeyBinding{key=Key[type=org.matsim.contrib.ev.discharging.AuxEnergyConsumption$Factory, annotation=[none]], source=org.matsim.contrib.ev.discharging.DischargingModule.install(DischargingModule.java:38), scope=Scopes.SINGLETON, target=Key[type=org.matsim.contrib.ev.discharging.OhdeSlaskiAuxEnergyConsumption$Factory, annotation=[none]]}
2024-12-20T07:52:06,942  INFO Injector:96 
2024-12-20T07:52:06,943  INFO Injector:85 org.matsim.core.mobsim.qsim.AbstractQSimModule @com.google.inject.internal.Element(setName=,uniqueId=129, type=MULTIBINDER, keyType=)
2024-12-20T07:52:06,943  INFO Injector:86   --> provider: ConstantFactory{value=org.matsim.contrib.ev.discharging.DischargingModule$1@4b9c2079}[Scopes.SINGLETON]
2024-12-20T07:52:06,943  INFO Injector:87   --> source: org.matsim.contrib.ev.discharging.DischargingModule.install(DischargingModule.java:40)
2024-12-20T07:52:06,943  INFO Injector:89   --> scope: eager singleton
2024-12-20T07:52:06,943  INFO Injector:94   ==full==> InstanceBinding{key=Key[type=org.matsim.core.mobsim.qsim.AbstractQSimModule, annotation=@com.google.inject.internal.Element(setName=,uniqueId=129, type=MULTIBINDER, keyType=)], source=org.matsim.contrib.ev.discharging.DischargingModule.install(DischargingModule.java:40), instance=org.matsim.contrib.ev.discharging.DischargingModule$1@4b9c2079}
2024-12-20T07:52:06,943  INFO Injector:96 
2024-12-20T07:52:06,943  INFO Injector:85 org.matsim.core.events.handler.EventHandler @com.google.inject.internal.Element(setName=,uniqueId=130, type=MULTIBINDER, keyType=)
2024-12-20T07:52:06,943  INFO Injector:86   --> provider: FactoryProxy{key=Key[type=org.matsim.core.events.handler.EventHandler, annotation=@com.google.inject.internal.Element(setName=,uniqueId=130, type=MULTIBINDER, keyType=)], provider=com.google.inject.internal.ConstructorBindingImpl$Factory@6ea29952[Scopes.SINGLETON]}
2024-12-20T07:52:06,943  INFO Injector:87   --> source: org.matsim.contrib.ev.stats.EvStatsModule.install(EvStatsModule.java:45)
2024-12-20T07:52:06,943  INFO Injector:89   --> scope: Scopes.NO_SCOPE
2024-12-20T07:52:06,943  INFO Injector:92   --> target: Key[type=org.matsim.contrib.ev.charging.ChargingEventSequenceCollector, annotation=[none]]
2024-12-20T07:52:06,943  INFO Injector:94   ==full==> LinkedKeyBinding{key=Key[type=org.matsim.core.events.handler.EventHandler, annotation=@com.google.inject.internal.Element(setName=,uniqueId=130, type=MULTIBINDER, keyType=)], source=org.matsim.contrib.ev.stats.EvStatsModule.install(EvStatsModule.java:45), scope=Scopes.NO_SCOPE, target=Key[type=org.matsim.contrib.ev.charging.ChargingEventSequenceCollector, annotation=[none]]}
2024-12-20T07:52:06,943  INFO Injector:96 
2024-12-20T07:52:06,943  INFO Injector:85 org.matsim.core.controler.listener.ControlerListener @com.google.inject.internal.Element(setName=,uniqueId=131, type=MULTIBINDER, keyType=)
2024-12-20T07:52:06,943  INFO Injector:86   --> provider: FactoryProxy{key=Key[type=org.matsim.core.controler.listener.ControlerListener, annotation=@com.google.inject.internal.Element(setName=,uniqueId=131, type=MULTIBINDER, keyType=)], provider=com.google.inject.internal.ConstructorBindingImpl$Factory@33b02d5e}[Scopes.SINGLETON]
2024-12-20T07:52:06,943  INFO Injector:87   --> source: org.matsim.contrib.ev.stats.EvStatsModule.install(EvStatsModule.java:46)
2024-12-20T07:52:06,944  INFO Injector:89   --> scope: Scopes.SINGLETON
2024-12-20T07:52:06,944  INFO Injector:92   --> target: Key[type=org.matsim.contrib.ev.stats.ChargingProceduresCSVWriter, annotation=[none]]
2024-12-20T07:52:06,944  INFO Injector:94   ==full==> LinkedKeyBinding{key=Key[type=org.matsim.core.controler.listener.ControlerListener, annotation=@com.google.inject.internal.Element(setName=,uniqueId=131, type=MULTIBINDER, keyType=)], source=org.matsim.contrib.ev.stats.EvStatsModule.install(EvStatsModule.java:46), scope=Scopes.SINGLETON, target=Key[type=org.matsim.contrib.ev.stats.ChargingProceduresCSVWriter, annotation=[none]]}
2024-12-20T07:52:06,944  INFO Injector:96 
2024-12-20T07:52:06,944  INFO Injector:85 org.matsim.core.mobsim.qsim.AbstractQSimModule @com.google.inject.internal.Element(setName=,uniqueId=132, type=MULTIBINDER, keyType=)
2024-12-20T07:52:06,944  INFO Injector:86   --> provider: ConstantFactory{value=org.matsim.contrib.ev.stats.EvStatsModule$1@c07f46d}[Scopes.SINGLETON]
2024-12-20T07:52:06,944  INFO Injector:87   --> source: org.matsim.contrib.ev.stats.EvStatsModule.install(EvStatsModule.java:48)
2024-12-20T07:52:06,944  INFO Injector:89   --> scope: eager singleton
2024-12-20T07:52:06,944  INFO Injector:94   ==full==> InstanceBinding{key=Key[type=org.matsim.core.mobsim.qsim.AbstractQSimModule, annotation=@com.google.inject.internal.Element(setName=,uniqueId=132, type=MULTIBINDER, keyType=)], source=org.matsim.contrib.ev.stats.EvStatsModule.install(EvStatsModule.java:48), instance=org.matsim.contrib.ev.stats.EvStatsModule$1@c07f46d}
2024-12-20T07:52:06,944  INFO Injector:96 
2024-12-20T07:52:06,944  INFO Injector:85 org.matsim.core.mobsim.qsim.AbstractQSimModule @com.google.inject.internal.Element(setName=,uniqueId=133, type=MULTIBINDER, keyType=)
2024-12-20T07:52:06,944  INFO Injector:86   --> provider: ConstantFactory{value=org.matsim.contrib.ev.EvModule$1@12cc1302}[Scopes.SINGLETON]
2024-12-20T07:52:06,944  INFO Injector:87   --> source: org.matsim.contrib.ev.EvModule.install(EvModule.java:41)
2024-12-20T07:52:06,944  INFO Injector:89   --> scope: eager singleton
2024-12-20T07:52:06,944  INFO Injector:94   ==full==> InstanceBinding{key=Key[type=org.matsim.core.mobsim.qsim.AbstractQSimModule, annotation=@com.google.inject.internal.Element(setName=,uniqueId=133, type=MULTIBINDER, keyType=)], source=org.matsim.contrib.ev.EvModule.install(EvModule.java:41), instance=org.matsim.contrib.ev.EvModule$1@12cc1302}
2024-12-20T07:52:06,944  INFO Injector:96 
2024-12-20T07:52:06,944  INFO Injector:85 org.matsim.core.router.RoutingModule @com.google.inject.name.Named("car")
2024-12-20T07:52:06,944  INFO Injector:86   --> provider: org.matsim.contrib.ev.routing.EvNetworkRoutingProvider@4b2616ad
2024-12-20T07:52:06,944  INFO Injector:87   --> source: org.matsim.contrib.ev.example.RunEvExampleWithEvScoring$1.install(RunEvExampleWithEvScoring.java:98)
2024-12-20T07:52:06,944  INFO Injector:89   --> scope: Scopes.NO_SCOPE
2024-12-20T07:52:06,944  INFO Injector:94   ==full==> ProviderInstanceBinding{key=Key[type=org.matsim.core.router.RoutingModule, annotation=@com.google.inject.name.Named("car")], source=org.matsim.contrib.ev.example.RunEvExampleWithEvScoring$1.install(RunEvExampleWithEvScoring.java:98), scope=Scopes.NO_SCOPE, provider=org.matsim.contrib.ev.routing.EvNetworkRoutingProvider@4b2616ad}
2024-12-20T07:52:06,945  INFO Injector:96 
2024-12-20T07:52:06,945  INFO Injector:85 org.matsim.api.core.v01.Scenario 
2024-12-20T07:52:06,945  INFO Injector:86   --> provider: ConstantFactory{value=org.matsim.core.scenario.MutableScenario@4c81fa3}[Scopes.SINGLETON]
2024-12-20T07:52:06,945  INFO Injector:87   --> source: org.matsim.core.scenario.ScenarioByInstanceModule.install(ScenarioByInstanceModule.java:52)
2024-12-20T07:52:06,945  INFO Injector:89   --> scope: eager singleton
2024-12-20T07:52:06,945  INFO Injector:94   ==full==> InstanceBinding{key=Key[type=org.matsim.api.core.v01.Scenario, annotation=[none]], source=org.matsim.core.scenario.ScenarioByInstanceModule.install(ScenarioByInstanceModule.java:52), instance=org.matsim.core.scenario.MutableScenario@4c81fa3}
2024-12-20T07:52:06,945  INFO Injector:96 
2024-12-20T07:52:06,945  INFO Injector:85 org.matsim.facilities.ActivityFacilities 
2024-12-20T07:52:06,945  INFO Injector:86   --> provider: @Provides org.matsim.core.scenario.ScenarioByInstanceModule.provideActivityFacilities(ScenarioByInstanceModule.java:72)
2024-12-20T07:52:06,945  INFO Injector:87   --> source: org.matsim.facilities.ActivityFacilities org.matsim.core.scenario.ScenarioByInstanceModule.provideActivityFacilities(org.matsim.api.core.v01.Scenario)
2024-12-20T07:52:06,945  INFO Injector:89   --> scope: Scopes.NO_SCOPE
2024-12-20T07:52:06,945  INFO Injector:94   ==full==> ProviderInstanceBinding{key=Key[type=org.matsim.facilities.ActivityFacilities, annotation=[none]], source=org.matsim.facilities.ActivityFacilities org.matsim.core.scenario.ScenarioByInstanceModule.provideActivityFacilities(org.matsim.api.core.v01.Scenario), scope=Scopes.NO_SCOPE, provider=@Provides org.matsim.core.scenario.ScenarioByInstanceModule.provideActivityFacilities(ScenarioByInstanceModule.java:72)}
2024-12-20T07:52:06,945  INFO Injector:96 
2024-12-20T07:52:06,945  INFO Injector:85 org.matsim.households.Households 
2024-12-20T07:52:06,945  INFO Injector:86   --> provider: @Provides org.matsim.core.scenario.ScenarioByInstanceModule.provideHouseholds(ScenarioByInstanceModule.java:77)
2024-12-20T07:52:06,946  INFO Injector:87   --> source: org.matsim.households.Households org.matsim.core.scenario.ScenarioByInstanceModule.provideHouseholds(org.matsim.api.core.v01.Scenario)
2024-12-20T07:52:06,946  INFO Injector:89   --> scope: Scopes.NO_SCOPE
2024-12-20T07:52:06,946  INFO Injector:94   ==full==> ProviderInstanceBinding{key=Key[type=org.matsim.households.Households, annotation=[none]], source=org.matsim.households.Households org.matsim.core.scenario.ScenarioByInstanceModule.provideHouseholds(org.matsim.api.core.v01.Scenario), scope=Scopes.NO_SCOPE, provider=@Provides org.matsim.core.scenario.ScenarioByInstanceModule.provideHouseholds(ScenarioByInstanceModule.java:77)}
2024-12-20T07:52:06,946  INFO Injector:96 
2024-12-20T07:52:06,946  INFO Injector:85 org.matsim.lanes.Lanes 
2024-12-20T07:52:06,946  INFO Injector:86   --> provider: @Provides org.matsim.core.scenario.ScenarioByInstanceModule.provideLanes(ScenarioByInstanceModule.java:87)
2024-12-20T07:52:06,946  INFO Injector:87   --> source: org.matsim.lanes.Lanes org.matsim.core.scenario.ScenarioByInstanceModule.provideLanes(org.matsim.api.core.v01.Scenario)
2024-12-20T07:52:06,946  INFO Injector:89   --> scope: Scopes.NO_SCOPE
2024-12-20T07:52:06,946  INFO Injector:94   ==full==> ProviderInstanceBinding{key=Key[type=org.matsim.lanes.Lanes, annotation=[none]], source=org.matsim.lanes.Lanes org.matsim.core.scenario.ScenarioByInstanceModule.provideLanes(org.matsim.api.core.v01.Scenario), scope=Scopes.NO_SCOPE, provider=@Provides org.matsim.core.scenario.ScenarioByInstanceModule.provideLanes(ScenarioByInstanceModule.java:87)}
2024-12-20T07:52:06,946  INFO Injector:96 
2024-12-20T07:52:06,946  INFO Injector:85 org.matsim.api.core.v01.network.Network 
2024-12-20T07:52:06,946  INFO Injector:86   --> provider: @Provides org.matsim.core.scenario.ScenarioByInstanceModule.provideNetwork(ScenarioByInstanceModule.java:60)
2024-12-20T07:52:06,946  INFO Injector:87   --> source: org.matsim.api.core.v01.network.Network org.matsim.core.scenario.ScenarioByInstanceModule.provideNetwork(org.matsim.api.core.v01.Scenario)
2024-12-20T07:52:06,946  INFO Injector:89   --> scope: Scopes.NO_SCOPE
2024-12-20T07:52:06,946  INFO Injector:94   ==full==> ProviderInstanceBinding{key=Key[type=org.matsim.api.core.v01.network.Network, annotation=[none]], source=org.matsim.api.core.v01.network.Network org.matsim.core.scenario.ScenarioByInstanceModule.provideNetwork(org.matsim.api.core.v01.Scenario), scope=Scopes.NO_SCOPE, provider=@Provides org.matsim.core.scenario.ScenarioByInstanceModule.provideNetwork(ScenarioByInstanceModule.java:60)}
2024-12-20T07:52:06,946  INFO Injector:96 
2024-12-20T07:52:06,946  INFO Injector:85 org.matsim.api.core.v01.population.Population 
2024-12-20T07:52:06,946  INFO Injector:86   --> provider: @Provides org.matsim.core.scenario.ScenarioByInstanceModule.providePopulation(ScenarioByInstanceModule.java:64)
2024-12-20T07:52:06,946  INFO Injector:87   --> source: org.matsim.api.core.v01.population.Population org.matsim.core.scenario.ScenarioByInstanceModule.providePopulation(org.matsim.api.core.v01.Scenario)
2024-12-20T07:52:06,946  INFO Injector:89   --> scope: Scopes.NO_SCOPE
2024-12-20T07:52:06,946  INFO Injector:94   ==full==> ProviderInstanceBinding{key=Key[type=org.matsim.api.core.v01.population.Population, annotation=[none]], source=org.matsim.api.core.v01.population.Population org.matsim.core.scenario.ScenarioByInstanceModule.providePopulation(org.matsim.api.core.v01.Scenario), scope=Scopes.NO_SCOPE, provider=@Provides org.matsim.core.scenario.ScenarioByInstanceModule.providePopulation(ScenarioByInstanceModule.java:64)}
2024-12-20T07:52:06,947  INFO Injector:96 
2024-12-20T07:52:06,947  INFO Injector:85 org.matsim.api.core.v01.population.PopulationFactory 
2024-12-20T07:52:06,947  INFO Injector:86   --> provider: @Provides org.matsim.core.scenario.ScenarioByInstanceModule.providePopulationFactory(ScenarioByInstanceModule.java:68)
2024-12-20T07:52:06,947  INFO Injector:87   --> source: org.matsim.api.core.v01.population.PopulationFactory org.matsim.core.scenario.ScenarioByInstanceModule.providePopulationFactory(org.matsim.api.core.v01.population.Population)
2024-12-20T07:52:06,947  INFO Injector:89   --> scope: Scopes.NO_SCOPE
2024-12-20T07:52:06,947  INFO Injector:94   ==full==> ProviderInstanceBinding{key=Key[type=org.matsim.api.core.v01.population.PopulationFactory, annotation=[none]], source=org.matsim.api.core.v01.population.PopulationFactory org.matsim.core.scenario.ScenarioByInstanceModule.providePopulationFactory(org.matsim.api.core.v01.population.Population), scope=Scopes.NO_SCOPE, provider=@Provides org.matsim.core.scenario.ScenarioByInstanceModule.providePopulationFactory(ScenarioByInstanceModule.java:68)}
2024-12-20T07:52:06,947  INFO Injector:96 
2024-12-20T07:52:06,947  INFO Injector:85 org.matsim.vehicles.Vehicles 
2024-12-20T07:52:06,947  INFO Injector:86   --> provider: @Provides org.matsim.core.scenario.ScenarioByInstanceModule.provideVehicles(ScenarioByInstanceModule.java:82)
2024-12-20T07:52:06,947  INFO Injector:87   --> source: org.matsim.vehicles.Vehicles org.matsim.core.scenario.ScenarioByInstanceModule.provideVehicles(org.matsim.api.core.v01.Scenario)
2024-12-20T07:52:06,947  INFO Injector:89   --> scope: Scopes.NO_SCOPE
2024-12-20T07:52:06,947  INFO Injector:94   ==full==> ProviderInstanceBinding{key=Key[type=org.matsim.vehicles.Vehicles, annotation=[none]], source=org.matsim.vehicles.Vehicles org.matsim.core.scenario.ScenarioByInstanceModule.provideVehicles(org.matsim.api.core.v01.Scenario), scope=Scopes.NO_SCOPE, provider=@Provides org.matsim.core.scenario.ScenarioByInstanceModule.provideVehicles(ScenarioByInstanceModule.java:82)}
2024-12-20T07:52:06,947  INFO Injector:96 
2024-12-20T07:52:06,947  INFO Injector:85 org.matsim.core.controler.ControlerI 
2024-12-20T07:52:06,947  INFO Injector:86   --> provider: FactoryProxy{key=Key[type=org.matsim.core.controler.ControlerI, annotation=[none]], provider=com.google.inject.internal.ConstructorBindingImpl$Factory@15753f42}[Scopes.SINGLETON]
2024-12-20T07:52:06,947  INFO Injector:87   --> source: org.matsim.core.controler.NewControlerModule.install(NewControlerModule.java:30)
2024-12-20T07:52:06,947  INFO Injector:89   --> scope: eager singleton
2024-12-20T07:52:06,947  INFO Injector:92   --> target: Key[type=org.matsim.core.controler.NewControler, annotation=[none]]
2024-12-20T07:52:06,947  INFO Injector:94   ==full==> LinkedKeyBinding{key=Key[type=org.matsim.core.controler.ControlerI, annotation=[none]], source=org.matsim.core.controler.NewControlerModule.install(NewControlerModule.java:30), scope=eager singleton, target=Key[type=org.matsim.core.controler.NewControler, annotation=[none]]}
2024-12-20T07:52:06,947  INFO Injector:96 
2024-12-20T07:52:06,947  INFO Injector:85 org.matsim.core.controler.ControlerListenerManager 
2024-12-20T07:52:06,947  INFO Injector:86   --> provider: FactoryProxy{key=Key[type=org.matsim.core.controler.ControlerListenerManager, annotation=[none]], provider=com.google.inject.internal.ConstructorBindingImpl$Factory@279d3a6f[Scopes.SINGLETON]}
2024-12-20T07:52:06,948  INFO Injector:87   --> source: org.matsim.core.controler.NewControlerModule.install(NewControlerModule.java:32)
2024-12-20T07:52:06,948  INFO Injector:89   --> scope: Scopes.NO_SCOPE
2024-12-20T07:52:06,948  INFO Injector:92   --> target: Key[type=org.matsim.core.controler.ControlerListenerManagerImpl, annotation=[none]]
2024-12-20T07:52:06,948  INFO Injector:94   ==full==> LinkedKeyBinding{key=Key[type=org.matsim.core.controler.ControlerListenerManager, annotation=[none]], source=org.matsim.core.controler.NewControlerModule.install(NewControlerModule.java:32), scope=Scopes.NO_SCOPE, target=Key[type=org.matsim.core.controler.ControlerListenerManagerImpl, annotation=[none]]}
2024-12-20T07:52:06,948  INFO Injector:96 
2024-12-20T07:52:06,948  INFO Injector:85 org.matsim.core.controler.TerminationCriterion 
2024-12-20T07:52:06,948  INFO Injector:86   --> provider: FactoryProxy{key=Key[type=org.matsim.core.controler.TerminationCriterion, annotation=[none]], provider=com.google.inject.internal.ConstructorBindingImpl$Factory@63ec0c38}
2024-12-20T07:52:06,948  INFO Injector:87   --> source: org.matsim.core.controler.NewControlerModule.install(NewControlerModule.java:36)
2024-12-20T07:52:06,948  INFO Injector:89   --> scope: Scopes.NO_SCOPE
2024-12-20T07:52:06,948  INFO Injector:92   --> target: Key[type=org.matsim.core.controler.TerminateAtFixedIterationNumber, annotation=[none]]
2024-12-20T07:52:06,948  INFO Injector:94   ==full==> LinkedKeyBinding{key=Key[type=org.matsim.core.controler.TerminationCriterion, annotation=[none]], source=org.matsim.core.controler.NewControlerModule.install(NewControlerModule.java:36), scope=Scopes.NO_SCOPE, target=Key[type=org.matsim.core.controler.TerminateAtFixedIterationNumber, annotation=[none]]}
2024-12-20T07:52:06,948  INFO Injector:96 
2024-12-20T07:52:06,948  INFO Injector:85 org.matsim.core.controler.MatsimServices 
2024-12-20T07:52:06,948  INFO Injector:86   --> provider: FactoryProxy{key=Key[type=org.matsim.core.controler.MatsimServices, annotation=[none]], provider=com.google.inject.internal.ConstructorBindingImpl$Factory@3641034b}
2024-12-20T07:52:06,948  INFO Injector:87   --> source: org.matsim.core.controler.NewControlerModule.install(NewControlerModule.java:37)
2024-12-20T07:52:06,948  INFO Injector:89   --> scope: Scopes.NO_SCOPE
2024-12-20T07:52:06,948  INFO Injector:92   --> target: Key[type=org.matsim.core.controler.MatsimServicesImpl, annotation=[none]]
2024-12-20T07:52:06,948  INFO Injector:94   ==full==> LinkedKeyBinding{key=Key[type=org.matsim.core.controler.MatsimServices, annotation=[none]], source=org.matsim.core.controler.NewControlerModule.install(NewControlerModule.java:37), scope=Scopes.NO_SCOPE, target=Key[type=org.matsim.core.controler.MatsimServicesImpl, annotation=[none]]}
2024-12-20T07:52:06,948  INFO Injector:96 
2024-12-20T07:52:06,948  INFO Injector:85 org.matsim.core.controler.IterationCounter 
2024-12-20T07:52:06,949  INFO Injector:86   --> provider: FactoryProxy{key=Key[type=org.matsim.core.controler.IterationCounter, annotation=[none]], provider=com.google.inject.internal.ConstructorBindingImpl$Factory@3641034b}
2024-12-20T07:52:06,949  INFO Injector:87   --> source: org.matsim.core.controler.NewControlerModule.install(NewControlerModule.java:39)
2024-12-20T07:52:06,949  INFO Injector:89   --> scope: Scopes.NO_SCOPE
2024-12-20T07:52:06,949  INFO Injector:92   --> target: Key[type=org.matsim.core.controler.MatsimServicesImpl, annotation=[none]]
2024-12-20T07:52:06,949  INFO Injector:94   ==full==> LinkedKeyBinding{key=Key[type=org.matsim.core.controler.IterationCounter, annotation=[none]], source=org.matsim.core.controler.NewControlerModule.install(NewControlerModule.java:39), scope=Scopes.NO_SCOPE, target=Key[type=org.matsim.core.controler.MatsimServicesImpl, annotation=[none]]}
2024-12-20T07:52:06,949  INFO Injector:96 
2024-12-20T07:52:06,949  INFO Injector:85 org.matsim.core.controler.PrepareForSim 
2024-12-20T07:52:06,949  INFO Injector:86   --> provider: FactoryProxy{key=Key[type=org.matsim.core.controler.PrepareForSim, annotation=[none]], provider=com.google.inject.internal.ConstructorBindingImpl$Factory@a72a5ee}
2024-12-20T07:52:06,949  INFO Injector:87   --> source: org.matsim.core.controler.NewControlerModule.install(NewControlerModule.java:43)
2024-12-20T07:52:06,949  INFO Injector:89   --> scope: Scopes.NO_SCOPE
2024-12-20T07:52:06,949  INFO Injector:92   --> target: Key[type=org.matsim.core.controler.PrepareForSimImpl, annotation=[none]]
2024-12-20T07:52:06,949  INFO Injector:94   ==full==> LinkedKeyBinding{key=Key[type=org.matsim.core.controler.PrepareForSim, annotation=[none]], source=org.matsim.core.controler.NewControlerModule.install(NewControlerModule.java:43), scope=Scopes.NO_SCOPE, target=Key[type=org.matsim.core.controler.PrepareForSimImpl, annotation=[none]]}
2024-12-20T07:52:06,949  INFO Injector:96 
2024-12-20T07:52:06,949  INFO Injector:85 org.matsim.core.controler.PrepareForMobsim 
2024-12-20T07:52:06,949  INFO Injector:86   --> provider: FactoryProxy{key=Key[type=org.matsim.core.controler.PrepareForMobsim, annotation=[none]], provider=com.google.inject.internal.ConstructorBindingImpl$Factory@44f2b88d}
2024-12-20T07:52:06,949  INFO Injector:87   --> source: org.matsim.core.controler.NewControlerModule.install(NewControlerModule.java:44)
2024-12-20T07:52:06,950  INFO Injector:89   --> scope: Scopes.NO_SCOPE
2024-12-20T07:52:06,950  INFO Injector:92   --> target: Key[type=org.matsim.core.controler.PrepareForMobsimImpl, annotation=[none]]
2024-12-20T07:52:06,950  INFO Injector:94   ==full==> LinkedKeyBinding{key=Key[type=org.matsim.core.controler.PrepareForMobsim, annotation=[none]], source=org.matsim.core.controler.NewControlerModule.install(NewControlerModule.java:44), scope=Scopes.NO_SCOPE, target=Key[type=org.matsim.core.controler.PrepareForMobsimImpl, annotation=[none]]}
2024-12-20T07:52:06,950  INFO Injector:96 
2024-12-20T07:52:06,950  INFO Injector:85 org.matsim.core.controler.corelisteners.PlansScoring 
2024-12-20T07:52:06,951  INFO Injector:86   --> provider: FactoryProxy{key=Key[type=org.matsim.core.controler.corelisteners.PlansScoring, annotation=[none]], provider=com.google.inject.internal.ConstructorBindingImpl$Factory@477cf1e7[Scopes.SINGLETON]}
2024-12-20T07:52:06,951  INFO Injector:87   --> source: org.matsim.core.scoring.PlansScoringModule.install(PlansScoringModule.java:33)
2024-12-20T07:52:06,951  INFO Injector:89   --> scope: Scopes.NO_SCOPE
2024-12-20T07:52:06,951  INFO Injector:92   --> target: Key[type=org.matsim.core.scoring.PlansScoringImpl, annotation=[none]]
2024-12-20T07:52:06,951  INFO Injector:94   ==full==> LinkedKeyBinding{key=Key[type=org.matsim.core.controler.corelisteners.PlansScoring, annotation=[none]], source=org.matsim.core.scoring.PlansScoringModule.install(PlansScoringModule.java:33), scope=Scopes.NO_SCOPE, target=Key[type=org.matsim.core.scoring.PlansScoringImpl, annotation=[none]]}
2024-12-20T07:52:06,951  INFO Injector:96 
2024-12-20T07:52:06,951  INFO Injector:85 org.matsim.core.scoring.ExperiencedPlansService 
2024-12-20T07:52:06,951  INFO Injector:86   --> provider: FactoryProxy{key=Key[type=org.matsim.core.scoring.ExperiencedPlansService, annotation=[none]], provider=com.google.inject.internal.ConstructorBindingImpl$Factory@7919f918}[Scopes.SINGLETON]
2024-12-20T07:52:06,951  INFO Injector:87   --> source: org.matsim.core.scoring.PlansScoringModule.install(PlansScoringModule.java:34)
2024-12-20T07:52:06,951  INFO Injector:89   --> scope: eager singleton
2024-12-20T07:52:06,951  INFO Injector:92   --> target: Key[type=org.matsim.core.scoring.ExperiencedPlansServiceImpl, annotation=[none]]
2024-12-20T07:52:06,952  INFO Injector:94   ==full==> LinkedKeyBinding{key=Key[type=org.matsim.core.scoring.ExperiencedPlansService, annotation=[none]], source=org.matsim.core.scoring.PlansScoringModule.install(PlansScoringModule.java:34), scope=eager singleton, target=Key[type=org.matsim.core.scoring.ExperiencedPlansServiceImpl, annotation=[none]]}
2024-12-20T07:52:06,952  INFO Injector:96 
2024-12-20T07:52:06,952  INFO Injector:85 org.matsim.core.scoring.NewScoreAssigner 
2024-12-20T07:52:06,952  INFO Injector:86   --> provider: FactoryProxy{key=Key[type=org.matsim.core.scoring.NewScoreAssigner, annotation=[none]], provider=com.google.inject.internal.ConstructorBindingImpl$Factory@665b7e00}[Scopes.SINGLETON]
2024-12-20T07:52:06,952  INFO Injector:87   --> source: org.matsim.core.scoring.PlansScoringModule.install(PlansScoringModule.java:35)
2024-12-20T07:52:06,952  INFO Injector:89   --> scope: eager singleton
2024-12-20T07:52:06,952  INFO Injector:92   --> target: Key[type=org.matsim.core.scoring.NewScoreAssignerImpl, annotation=[none]]
2024-12-20T07:52:06,952  INFO Injector:94   ==full==> LinkedKeyBinding{key=Key[type=org.matsim.core.scoring.NewScoreAssigner, annotation=[none]], source=org.matsim.core.scoring.PlansScoringModule.install(PlansScoringModule.java:35), scope=eager singleton, target=Key[type=org.matsim.core.scoring.NewScoreAssignerImpl, annotation=[none]]}
2024-12-20T07:52:06,952  INFO Injector:96 
2024-12-20T07:52:06,952  INFO Injector:85 org.matsim.core.controler.corelisteners.PlansReplanning 
2024-12-20T07:52:06,952  INFO Injector:86   --> provider: FactoryProxy{key=Key[type=org.matsim.core.controler.corelisteners.PlansReplanning, annotation=[none]], provider=com.google.inject.internal.ConstructorBindingImpl$Factory@37bc9496[Scopes.SINGLETON]}
2024-12-20T07:52:06,952  INFO Injector:87   --> source: org.matsim.core.controler.corelisteners.ControlerDefaultCoreListenersModule.install(ControlerDefaultCoreListenersModule.java:38)
2024-12-20T07:52:06,952  INFO Injector:89   --> scope: Scopes.NO_SCOPE
2024-12-20T07:52:06,952  INFO Injector:92   --> target: Key[type=org.matsim.core.controler.corelisteners.PlansReplanningImpl, annotation=[none]]
2024-12-20T07:52:06,952  INFO Injector:94   ==full==> LinkedKeyBinding{key=Key[type=org.matsim.core.controler.corelisteners.PlansReplanning, annotation=[none]], source=org.matsim.core.controler.corelisteners.ControlerDefaultCoreListenersModule.install(ControlerDefaultCoreListenersModule.java:38), scope=Scopes.NO_SCOPE, target=Key[type=org.matsim.core.controler.corelisteners.PlansReplanningImpl, annotation=[none]]}
2024-12-20T07:52:06,952  INFO Injector:96 
2024-12-20T07:52:06,952  INFO Injector:85 org.matsim.core.controler.corelisteners.PlansDumping 
2024-12-20T07:52:06,952  INFO Injector:86   --> provider: FactoryProxy{key=Key[type=org.matsim.core.controler.corelisteners.PlansDumping, annotation=[none]], provider=com.google.inject.internal.ConstructorBindingImpl$Factory@17efb84f[Scopes.SINGLETON]}
2024-12-20T07:52:06,952  INFO Injector:87   --> source: org.matsim.core.controler.corelisteners.ControlerDefaultCoreListenersModule.install(ControlerDefaultCoreListenersModule.java:39)
2024-12-20T07:52:06,952  INFO Injector:89   --> scope: Scopes.NO_SCOPE
2024-12-20T07:52:06,952  INFO Injector:92   --> target: Key[type=org.matsim.core.controler.corelisteners.PlansDumpingImpl, annotation=[none]]
2024-12-20T07:52:06,953  INFO Injector:94   ==full==> LinkedKeyBinding{key=Key[type=org.matsim.core.controler.corelisteners.PlansDumping, annotation=[none]], source=org.matsim.core.controler.corelisteners.ControlerDefaultCoreListenersModule.install(ControlerDefaultCoreListenersModule.java:39), scope=Scopes.NO_SCOPE, target=Key[type=org.matsim.core.controler.corelisteners.PlansDumpingImpl, annotation=[none]]}
2024-12-20T07:52:06,953  INFO Injector:96 
2024-12-20T07:52:06,953  INFO Injector:85 org.matsim.core.controler.corelisteners.EventsHandling 
2024-12-20T07:52:06,953  INFO Injector:86   --> provider: FactoryProxy{key=Key[type=org.matsim.core.controler.corelisteners.EventsHandling, annotation=[none]], provider=com.google.inject.internal.ConstructorBindingImpl$Factory@21885293[Scopes.SINGLETON]}
2024-12-20T07:52:06,953  INFO Injector:87   --> source: org.matsim.core.controler.corelisteners.ControlerDefaultCoreListenersModule.install(ControlerDefaultCoreListenersModule.java:40)
2024-12-20T07:52:06,953  INFO Injector:89   --> scope: Scopes.NO_SCOPE
2024-12-20T07:52:06,953  INFO Injector:92   --> target: Key[type=org.matsim.core.controler.corelisteners.EventsHandlingImpl, annotation=[none]]
2024-12-20T07:52:06,953  INFO Injector:94   ==full==> LinkedKeyBinding{key=Key[type=org.matsim.core.controler.corelisteners.EventsHandling, annotation=[none]], source=org.matsim.core.controler.corelisteners.ControlerDefaultCoreListenersModule.install(ControlerDefaultCoreListenersModule.java:40), scope=Scopes.NO_SCOPE, target=Key[type=org.matsim.core.controler.corelisteners.EventsHandlingImpl, annotation=[none]]}
2024-12-20T07:52:06,953  INFO Injector:96 
2024-12-20T07:52:06,953  INFO Injector:85 org.matsim.core.controler.corelisteners.DumpDataAtEnd 
2024-12-20T07:52:06,953  INFO Injector:86   --> provider: FactoryProxy{key=Key[type=org.matsim.core.controler.corelisteners.DumpDataAtEnd, annotation=[none]], provider=com.google.inject.internal.ConstructorBindingImpl$Factory@1c9e93dc[Scopes.SINGLETON]}
2024-12-20T07:52:06,954  INFO Injector:87   --> source: org.matsim.core.controler.corelisteners.ControlerDefaultCoreListenersModule.install(ControlerDefaultCoreListenersModule.java:41)
2024-12-20T07:52:06,954  INFO Injector:89   --> scope: Scopes.NO_SCOPE
2024-12-20T07:52:06,954  INFO Injector:92   --> target: Key[type=org.matsim.core.controler.corelisteners.DumpDataAtEndImpl, annotation=[none]]
2024-12-20T07:52:06,954  INFO Injector:94   ==full==> LinkedKeyBinding{key=Key[type=org.matsim.core.controler.corelisteners.DumpDataAtEnd, annotation=[none]], source=org.matsim.core.controler.corelisteners.ControlerDefaultCoreListenersModule.install(ControlerDefaultCoreListenersModule.java:41), scope=Scopes.NO_SCOPE, target=Key[type=org.matsim.core.controler.corelisteners.DumpDataAtEndImpl, annotation=[none]]}
2024-12-20T07:52:06,954  INFO Injector:96 
2024-12-20T07:52:06,954  INFO Injector:85 org.matsim.core.api.experimental.events.EventsManager 
2024-12-20T07:52:06,954  INFO Injector:86   --> provider: FactoryProxy{key=Key[type=org.matsim.core.api.experimental.events.EventsManager, annotation=[none]], provider=com.google.inject.internal.ConstructorBindingImpl$Factory@4fd5acfd}[Scopes.SINGLETON]
2024-12-20T07:52:06,954  INFO Injector:87   --> source: org.matsim.core.events.EventsManagerModule.install(EventsManagerModule.java:46)
2024-12-20T07:52:06,954  INFO Injector:89   --> scope: Scopes.SINGLETON
2024-12-20T07:52:06,955  INFO Injector:92   --> target: Key[type=org.matsim.core.events.SimStepParallelEventsManagerImpl, annotation=[none]]
2024-12-20T07:52:06,955  INFO Injector:94   ==full==> LinkedKeyBinding{key=Key[type=org.matsim.core.api.experimental.events.EventsManager, annotation=[none]], source=org.matsim.core.events.EventsManagerModule.install(EventsManagerModule.java:46), scope=Scopes.SINGLETON, target=Key[type=org.matsim.core.events.SimStepParallelEventsManagerImpl, annotation=[none]]}
2024-12-20T07:52:06,955  INFO Injector:96 
2024-12-20T07:52:06,955  INFO Injector:85 org.matsim.core.mobsim.qsim.components.QSimComponentsConfig 
2024-12-20T07:52:06,955  INFO Injector:86   --> provider: @Provides org.matsim.core.mobsim.qsim.components.QSimComponentsModule.provideDefaultQSimComponentsConfig(QSimComponentsModule.java:34)[Scopes.SINGLETON]
2024-12-20T07:52:06,955  INFO Injector:87   --> source: public org.matsim.core.mobsim.qsim.components.QSimComponentsConfig org.matsim.core.mobsim.qsim.components.QSimComponentsModule.provideDefaultQSimComponentsConfig(org.matsim.core.config.Config)
2024-12-20T07:52:06,955  INFO Injector:89   --> scope: Scopes.SINGLETON
2024-12-20T07:52:06,955  INFO Injector:94   ==full==> ProviderInstanceBinding{key=Key[type=org.matsim.core.mobsim.qsim.components.QSimComponentsConfig, annotation=[none]], source=public org.matsim.core.mobsim.qsim.components.QSimComponentsConfig org.matsim.core.mobsim.qsim.components.QSimComponentsModule.provideDefaultQSimComponentsConfig(org.matsim.core.config.Config), scope=Scopes.SINGLETON, provider=@Provides org.matsim.core.mobsim.qsim.components.QSimComponentsModule.provideDefaultQSimComponentsConfig(QSimComponentsModule.java:34)}
2024-12-20T07:52:06,955  INFO Injector:96 
2024-12-20T07:52:06,955  INFO Injector:85 org.matsim.core.mobsim.qsim.AbstractQSimModule @com.google.inject.internal.Element(setName=,uniqueId=101, type=MULTIBINDER, keyType=)
2024-12-20T07:52:06,955  INFO Injector:86   --> provider: ConstantFactory{value=org.matsim.core.mobsim.qsim.messagequeueengine.MessageQueueModule@24c14e4a}[Scopes.SINGLETON]
2024-12-20T07:52:06,956  INFO Injector:87   --> source: java.base/java.util.Arrays$ArrayList.forEach(Arrays.java:4305)
2024-12-20T07:52:06,956  INFO Injector:89   --> scope: eager singleton
2024-12-20T07:52:06,956  INFO Injector:94   ==full==> InstanceBinding{key=Key[type=org.matsim.core.mobsim.qsim.AbstractQSimModule, annotation=@com.google.inject.internal.Element(setName=,uniqueId=101, type=MULTIBINDER, keyType=)], source=java.base/java.util.Arrays$ArrayList.forEach(Arrays.java:4305), instance=org.matsim.core.mobsim.qsim.messagequeueengine.MessageQueueModule@24c14e4a}
2024-12-20T07:52:06,956  INFO Injector:96 
2024-12-20T07:52:06,956  INFO Injector:85 org.matsim.core.mobsim.qsim.AbstractQSimModule @com.google.inject.internal.Element(setName=,uniqueId=102, type=MULTIBINDER, keyType=)
2024-12-20T07:52:06,956  INFO Injector:86   --> provider: ConstantFactory{value=org.matsim.core.mobsim.qsim.ActivityEngineModule@e743d43}[Scopes.SINGLETON]
2024-12-20T07:52:06,956  INFO Injector:87   --> source: java.base/java.util.Arrays$ArrayList.forEach(Arrays.java:4305)
2024-12-20T07:52:06,956  INFO Injector:89   --> scope: eager singleton
2024-12-20T07:52:06,956  INFO Injector:94   ==full==> InstanceBinding{key=Key[type=org.matsim.core.mobsim.qsim.AbstractQSimModule, annotation=@com.google.inject.internal.Element(setName=,uniqueId=102, type=MULTIBINDER, keyType=)], source=java.base/java.util.Arrays$ArrayList.forEach(Arrays.java:4305), instance=org.matsim.core.mobsim.qsim.ActivityEngineModule@e743d43}
2024-12-20T07:52:06,956  INFO Injector:96 
2024-12-20T07:52:06,956  INFO Injector:85 org.matsim.core.mobsim.qsim.AbstractQSimModule @com.google.inject.internal.Element(setName=,uniqueId=103, type=MULTIBINDER, keyType=)
2024-12-20T07:52:06,956  INFO Injector:86   --> provider: ConstantFactory{value=org.matsim.core.mobsim.qsim.qnetsimengine.QNetsimEngineModule@3de3047c}[Scopes.SINGLETON]
2024-12-20T07:52:06,956  INFO Injector:87   --> source: java.base/java.util.Arrays$ArrayList.forEach(Arrays.java:4305)
2024-12-20T07:52:06,956  INFO Injector:89   --> scope: eager singleton
2024-12-20T07:52:06,956  INFO Injector:94   ==full==> InstanceBinding{key=Key[type=org.matsim.core.mobsim.qsim.AbstractQSimModule, annotation=@com.google.inject.internal.Element(setName=,uniqueId=103, type=MULTIBINDER, keyType=)], source=java.base/java.util.Arrays$ArrayList.forEach(Arrays.java:4305), instance=org.matsim.core.mobsim.qsim.qnetsimengine.QNetsimEngineModule@3de3047c}
2024-12-20T07:52:06,956  INFO Injector:96 
2024-12-20T07:52:06,956  INFO Injector:85 org.matsim.core.mobsim.qsim.AbstractQSimModule @com.google.inject.internal.Element(setName=,uniqueId=104, type=MULTIBINDER, keyType=)
2024-12-20T07:52:06,956  INFO Injector:86   --> provider: ConstantFactory{value=org.matsim.core.mobsim.qsim.TeleportationModule@4fc554c1}[Scopes.SINGLETON]
2024-12-20T07:52:06,956  INFO Injector:87   --> source: java.base/java.util.Arrays$ArrayList.forEach(Arrays.java:4305)
2024-12-20T07:52:06,956  INFO Injector:89   --> scope: eager singleton
2024-12-20T07:52:06,956  INFO Injector:94   ==full==> InstanceBinding{key=Key[type=org.matsim.core.mobsim.qsim.AbstractQSimModule, annotation=@com.google.inject.internal.Element(setName=,uniqueId=104, type=MULTIBINDER, keyType=)], source=java.base/java.util.Arrays$ArrayList.forEach(Arrays.java:4305), instance=org.matsim.core.mobsim.qsim.TeleportationModule@4fc554c1}
2024-12-20T07:52:06,956  INFO Injector:96 
2024-12-20T07:52:06,956  INFO Injector:85 org.matsim.core.mobsim.qsim.AbstractQSimModule @com.google.inject.internal.Element(setName=,uniqueId=105, type=MULTIBINDER, keyType=)
2024-12-20T07:52:06,956  INFO Injector:86   --> provider: ConstantFactory{value=org.matsim.core.mobsim.qsim.PopulationModule@6158f06d}[Scopes.SINGLETON]
2024-12-20T07:52:06,956  INFO Injector:87   --> source: java.base/java.util.Arrays$ArrayList.forEach(Arrays.java:4305)
2024-12-20T07:52:06,956  INFO Injector:89   --> scope: eager singleton
2024-12-20T07:52:06,956  INFO Injector:94   ==full==> InstanceBinding{key=Key[type=org.matsim.core.mobsim.qsim.AbstractQSimModule, annotation=@com.google.inject.internal.Element(setName=,uniqueId=105, type=MULTIBINDER, keyType=)], source=java.base/java.util.Arrays$ArrayList.forEach(Arrays.java:4305), instance=org.matsim.core.mobsim.qsim.PopulationModule@6158f06d}
2024-12-20T07:52:06,956  INFO Injector:96 
2024-12-20T07:52:06,956  INFO Injector:85 org.matsim.core.mobsim.qsim.AbstractQSimModule @com.google.inject.internal.Element(setName=,uniqueId=106, type=MULTIBINDER, keyType=)
2024-12-20T07:52:06,956  INFO Injector:86   --> provider: ConstantFactory{value=org.matsim.core.mobsim.qsim.changeeventsengine.NetworkChangeEventsModule@4e694720}[Scopes.SINGLETON]
2024-12-20T07:52:06,957  INFO Injector:87   --> source: java.base/java.util.Arrays$ArrayList.forEach(Arrays.java:4305)
2024-12-20T07:52:06,957  INFO Injector:89   --> scope: eager singleton
2024-12-20T07:52:06,957  INFO Injector:94   ==full==> InstanceBinding{key=Key[type=org.matsim.core.mobsim.qsim.AbstractQSimModule, annotation=@com.google.inject.internal.Element(setName=,uniqueId=106, type=MULTIBINDER, keyType=)], source=java.base/java.util.Arrays$ArrayList.forEach(Arrays.java:4305), instance=org.matsim.core.mobsim.qsim.changeeventsengine.NetworkChangeEventsModule@4e694720}
2024-12-20T07:52:06,957  INFO Injector:96 
2024-12-20T07:52:06,957  INFO Injector:85 org.matsim.core.mobsim.qsim.AbstractQSimModule @com.google.inject.internal.Element(setName=,uniqueId=107, type=MULTIBINDER, keyType=)
2024-12-20T07:52:06,957  INFO Injector:86   --> provider: ConstantFactory{value=org.matsim.core.mobsim.qsim.pt.TransitEngineModule@6b8c7a75}[Scopes.SINGLETON]
2024-12-20T07:52:06,957  INFO Injector:87   --> source: java.base/java.util.Arrays$ArrayList.forEach(Arrays.java:4305)
2024-12-20T07:52:06,957  INFO Injector:89   --> scope: eager singleton
2024-12-20T07:52:06,957  INFO Injector:94   ==full==> InstanceBinding{key=Key[type=org.matsim.core.mobsim.qsim.AbstractQSimModule, annotation=@com.google.inject.internal.Element(setName=,uniqueId=107, type=MULTIBINDER, keyType=)], source=java.base/java.util.Arrays$ArrayList.forEach(Arrays.java:4305), instance=org.matsim.core.mobsim.qsim.pt.TransitEngineModule@6b8c7a75}
2024-12-20T07:52:06,957  INFO Injector:96 
2024-12-20T07:52:06,957  INFO Injector:85 org.matsim.core.mobsim.framework.Mobsim 
2024-12-20T07:52:06,957  INFO Injector:86   --> provider: Key[type=org.matsim.core.mobsim.qsim.QSimProvider, annotation=[none]]
2024-12-20T07:52:06,957  INFO Injector:87   --> source: org.matsim.core.mobsim.qsim.QSimModule.install(QSimModule.java:100)
2024-12-20T07:52:06,957  INFO Injector:89   --> scope: Scopes.NO_SCOPE
2024-12-20T07:52:06,957  INFO Injector:94   ==full==> ProviderKeyBinding{key=Key[type=org.matsim.core.mobsim.framework.Mobsim, annotation=[none]], source=org.matsim.core.mobsim.qsim.QSimModule.install(QSimModule.java:100), scope=Scopes.NO_SCOPE, provider=Key[type=org.matsim.core.mobsim.qsim.QSimProvider, annotation=[none]]}
2024-12-20T07:52:06,957  INFO Injector:96 
2024-12-20T07:52:06,957  INFO Injector:85 org.matsim.core.controler.listener.ControlerListener @com.google.inject.internal.Element(setName=,uniqueId=108, type=MULTIBINDER, keyType=)
2024-12-20T07:52:06,957  INFO Injector:86   --> provider: FactoryProxy{key=Key[type=org.matsim.core.controler.listener.ControlerListener, annotation=@com.google.inject.internal.Element(setName=,uniqueId=108, type=MULTIBINDER, keyType=)], provider=com.google.inject.internal.ConstructorBindingImpl$Factory@2e85f101[Scopes.SINGLETON]}
2024-12-20T07:52:06,957  INFO Injector:87   --> source: org.matsim.core.events.MobsimScopeEventHandlingModule.install(MobsimScopeEventHandlingModule.java:39)
2024-12-20T07:52:06,957  INFO Injector:89   --> scope: Scopes.NO_SCOPE
2024-12-20T07:52:06,957  INFO Injector:92   --> target: Key[type=org.matsim.core.events.MobsimScopeEventHandling, annotation=[none]]
2024-12-20T07:52:06,957  INFO Injector:94   ==full==> LinkedKeyBinding{key=Key[type=org.matsim.core.controler.listener.ControlerListener, annotation=@com.google.inject.internal.Element(setName=,uniqueId=108, type=MULTIBINDER, keyType=)], source=org.matsim.core.events.MobsimScopeEventHandlingModule.install(MobsimScopeEventHandlingModule.java:39), scope=Scopes.NO_SCOPE, target=Key[type=org.matsim.core.events.MobsimScopeEventHandling, annotation=[none]]}
2024-12-20T07:52:06,957  INFO Injector:96 
2024-12-20T07:52:06,957  INFO Injector:85 org.matsim.core.mobsim.qsim.AbstractQSimModule @com.google.inject.internal.Element(setName=,uniqueId=109, type=MULTIBINDER, keyType=)
2024-12-20T07:52:06,957  INFO Injector:86   --> provider: ConstantFactory{value=org.matsim.core.events.MobsimScopeEventHandlingModule$1@e8a5899}[Scopes.SINGLETON]
2024-12-20T07:52:06,957  INFO Injector:87   --> source: org.matsim.core.events.MobsimScopeEventHandlingModule.install(MobsimScopeEventHandlingModule.java:41)
2024-12-20T07:52:06,957  INFO Injector:89   --> scope: eager singleton
2024-12-20T07:52:06,957  INFO Injector:94   ==full==> InstanceBinding{key=Key[type=org.matsim.core.mobsim.qsim.AbstractQSimModule, annotation=@com.google.inject.internal.Element(setName=,uniqueId=109, type=MULTIBINDER, keyType=)], source=org.matsim.core.events.MobsimScopeEventHandlingModule.install(MobsimScopeEventHandlingModule.java:41), instance=org.matsim.core.events.MobsimScopeEventHandlingModule$1@e8a5899}
2024-12-20T07:52:06,957  INFO Injector:96 
2024-12-20T07:52:06,957  INFO Injector:85 org.matsim.core.trafficmonitoring.TravelTimeCalculator @com.google.inject.name.Named("car")
2024-12-20T07:52:06,957  INFO Injector:86   --> provider: org.matsim.core.trafficmonitoring.TravelTimeCalculatorModule$SingleModeTravelTimeCalculatorProvider@177546f1[Scopes.SINGLETON]
2024-12-20T07:52:06,957  INFO Injector:87   --> source: org.matsim.core.trafficmonitoring.TravelTimeCalculatorModule.install(TravelTimeCalculatorModule.java:65)
2024-12-20T07:52:06,957  INFO Injector:89   --> scope: Scopes.SINGLETON
2024-12-20T07:52:06,957  INFO Injector:94   ==full==> ProviderInstanceBinding{key=Key[type=org.matsim.core.trafficmonitoring.TravelTimeCalculator, annotation=@com.google.inject.name.Named("car")], source=org.matsim.core.trafficmonitoring.TravelTimeCalculatorModule.install(TravelTimeCalculatorModule.java:65), scope=Scopes.SINGLETON, provider=org.matsim.core.trafficmonitoring.TravelTimeCalculatorModule$SingleModeTravelTimeCalculatorProvider@177546f1}
2024-12-20T07:52:06,957  INFO Injector:96 
2024-12-20T07:52:06,958  INFO Injector:85 org.matsim.core.router.util.TravelTime @com.google.inject.name.Named("car")
2024-12-20T07:52:06,958  INFO Injector:86   --> provider: org.matsim.core.trafficmonitoring.TravelTimeCalculatorModule$1@5d9935ba[Scopes.SINGLETON]
2024-12-20T07:52:06,958  INFO Injector:87   --> source: org.matsim.core.trafficmonitoring.TravelTimeCalculatorModule.install(TravelTimeCalculatorModule.java:68)
2024-12-20T07:52:06,958  INFO Injector:89   --> scope: Scopes.SINGLETON
2024-12-20T07:52:06,958  INFO Injector:94   ==full==> ProviderInstanceBinding{key=Key[type=org.matsim.core.router.util.TravelTime, annotation=@com.google.inject.name.Named("car")], source=org.matsim.core.trafficmonitoring.TravelTimeCalculatorModule.install(TravelTimeCalculatorModule.java:68), scope=Scopes.SINGLETON, provider=org.matsim.core.trafficmonitoring.TravelTimeCalculatorModule$1@5d9935ba}
2024-12-20T07:52:06,958  INFO Injector:96 
2024-12-20T07:52:06,958  INFO Injector:85 org.matsim.core.router.costcalculators.TravelDisutilityFactory @com.google.inject.name.Named("car")
2024-12-20T07:52:06,958  INFO Injector:86   --> provider: ConstantFactory{value=org.matsim.core.router.costcalculators.RandomizingTimeDistanceTravelDisutilityFactory@4cd50268}[Scopes.SINGLETON]
2024-12-20T07:52:06,958  INFO Injector:87   --> source: org.matsim.core.router.costcalculators.TravelDisutilityModule.install(TravelDisutilityModule.java:37)
2024-12-20T07:52:06,958  INFO Injector:89   --> scope: eager singleton
2024-12-20T07:52:06,958  INFO Injector:94   ==full==> InstanceBinding{key=Key[type=org.matsim.core.router.costcalculators.TravelDisutilityFactory, annotation=@com.google.inject.name.Named("car")], source=org.matsim.core.router.costcalculators.TravelDisutilityModule.install(TravelDisutilityModule.java:37), instance=org.matsim.core.router.costcalculators.RandomizingTimeDistanceTravelDisutilityFactory@4cd50268}
2024-12-20T07:52:06,958  INFO Injector:96 
2024-12-20T07:52:06,958  INFO Injector:85 org.matsim.core.scoring.functions.ScoringParametersForPerson 
2024-12-20T07:52:06,958  INFO Injector:86   --> provider: FactoryProxy{key=Key[type=org.matsim.core.scoring.functions.ScoringParametersForPerson, annotation=[none]], provider=com.google.inject.internal.ConstructorBindingImpl$Factory@7bb4c572}
2024-12-20T07:52:06,958  INFO Injector:87   --> source: org.matsim.core.scoring.functions.CharyparNagelScoringFunctionModule.install(CharyparNagelScoringFunctionModule.java:38)
2024-12-20T07:52:06,958  INFO Injector:89   --> scope: Scopes.NO_SCOPE
2024-12-20T07:52:06,958  INFO Injector:92   --> target: Key[type=org.matsim.core.scoring.functions.SubpopulationScoringParameters, annotation=[none]]
[...]
[WARNING] thread Thread[#185,ForkJoinPool.commonPool-worker-20,5,org.matsim.contrib.ev.example.RunEvExampleWithEvScoring] will linger despite being asked to die via interruption
[WARNING] thread Thread[#183,ForkJoinPool.commonPool-worker-18,5,org.matsim.contrib.ev.example.RunEvExampleWithEvScoring] will linger despite being asked to die via interruption
[WARNING] thread Thread[#186,ForkJoinPool.commonPool-worker-21,5,org.matsim.contrib.ev.example.RunEvExampleWithEvScoring] will linger despite being asked to die via interruption
[WARNING] thread Thread[#187,ForkJoinPool.commonPool-worker-22,5,org.matsim.contrib.ev.example.RunEvExampleWithEvScoring] will linger despite being asked to die via interruption
[WARNING] thread Thread[#188,ForkJoinPool.commonPool-worker-23,5,org.matsim.contrib.ev.example.RunEvExampleWithEvScoring] will linger despite being asked to die via interruption
[WARNING] thread Thread[#210,ForkJoinPool.commonPool-worker-45,5,org.matsim.contrib.ev.example.RunEvExampleWithEvScoring] will linger despite being asked to die via interruption
[WARNING] thread Thread[#190,ForkJoinPool.commonPool-worker-25,5,org.matsim.contrib.ev.example.RunEvExampleWithEvScoring] will linger despite being asked to die via interruption
[WARNING] thread Thread[#191,ForkJoinPool.commonPool-worker-26,5,org.matsim.contrib.ev.example.RunEvExampleWithEvScoring] will linger despite being asked to die via interruption
[WARNING] thread Thread[#192,ForkJoinPool.commonPool-worker-27,5,org.matsim.contrib.ev.example.RunEvExampleWithEvScoring] will linger despite being asked to die via interruption
[WARNING] thread Thread[#218,ForkJoinPool.commonPool-worker-53,5,org.matsim.contrib.ev.example.RunEvExampleWithEvScoring] will linger despite being asked to die via interruption
[WARNING] thread Thread[#194,ForkJoinPool.commonPool-worker-29,5,org.matsim.contrib.ev.example.RunEvExampleWithEvScoring] will linger despite being asked to die via interruption
[WARNING] thread Thread[#195,ForkJoinPool.commonPool-worker-30,5,org.matsim.contrib.ev.example.RunEvExampleWithEvScoring] will linger despite being asked to die via interruption
[WARNING] thread Thread[#196,ForkJoinPool.commonPool-worker-31,5,org.matsim.contrib.ev.example.RunEvExampleWithEvScoring] will linger despite being asked to die via interruption
[WARNING] thread Thread[#184,ForkJoinPool.commonPool-worker-19,5,org.matsim.contrib.ev.example.RunEvExampleWithEvScoring] will linger despite being asked to die via interruption
[WARNING] thread Thread[#199,ForkJoinPool.commonPool-worker-34,5,org.matsim.contrib.ev.example.RunEvExampleWithEvScoring] will linger despite being asked to die via interruption
[WARNING] thread Thread[#229,ForkJoinPool.commonPool-worker-64,5,org.matsim.contrib.ev.example.RunEvExampleWithEvScoring] will linger despite being asked to die via interruption
[WARNING] thread Thread[#200,ForkJoinPool.commonPool-worker-35,5,org.matsim.contrib.ev.example.RunEvExampleWithEvScoring] will linger despite being asked to die via interruption
[WARNING] thread Thread[#201,ForkJoinPool.commonPool-worker-36,5,org.matsim.contrib.ev.example.RunEvExampleWithEvScoring] will linger despite being asked to die via interruption
[WARNING] thread Thread[#202,ForkJoinPool.commonPool-worker-37,5,org.matsim.contrib.ev.example.RunEvExampleWithEvScoring] will linger despite being asked to die via interruption
[WARNING] thread Thread[#203,ForkJoinPool.commonPool-worker-38,5,org.matsim.contrib.ev.example.RunEvExampleWithEvScoring] will linger despite being asked to die via interruption
[WARNING] thread Thread[#204,ForkJoinPool.commonPool-worker-39,5,org.matsim.contrib.ev.example.RunEvExampleWithEvScoring] will linger despite being asked to die via interruption
[WARNING] thread Thread[#205,ForkJoinPool.commonPool-worker-40,5,org.matsim.contrib.ev.example.RunEvExampleWithEvScoring] will linger despite being asked to die via interruption
[WARNING] thread Thread[#206,ForkJoinPool.commonPool-worker-41,5,org.matsim.contrib.ev.example.RunEvExampleWithEvScoring] will linger despite being asked to die via interruption
[WARNING] thread Thread[#207,ForkJoinPool.commonPool-worker-42,5,org.matsim.contrib.ev.example.RunEvExampleWithEvScoring] will linger despite being asked to die via interruption
[WARNING] thread Thread[#208,ForkJoinPool.commonPool-worker-43,5,org.matsim.contrib.ev.example.RunEvExampleWithEvScoring] will linger despite being asked to die via interruption
[WARNING] thread Thread[#249,ForkJoinPool.commonPool-worker-84,5,org.matsim.contrib.ev.example.RunEvExampleWithEvScoring] will linger despite being asked to die via interruption
[WARNING] thread Thread[#189,ForkJoinPool.commonPool-worker-24,5,org.matsim.contrib.ev.example.RunEvExampleWithEvScoring] will linger despite being asked to die via interruption
[WARNING] thread Thread[#211,ForkJoinPool.commonPool-worker-46,5,org.matsim.contrib.ev.example.RunEvExampleWithEvScoring] will linger despite being asked to die via interruption
[WARNING] thread Thread[#212,ForkJoinPool.commonPool-worker-47,5,org.matsim.contrib.ev.example.RunEvExampleWithEvScoring] will linger despite being asked to die via interruption
[WARNING] thread Thread[#213,ForkJoinPool.commonPool-worker-48,5,org.matsim.contrib.ev.example.RunEvExampleWithEvScoring] will linger despite being asked to die via interruption
[WARNING] thread Thread[#215,ForkJoinPool.commonPool-worker-50,5,org.matsim.contrib.ev.example.RunEvExampleWithEvScoring] will linger despite being asked to die via interruption
[WARNING] thread Thread[#261,ForkJoinPool.commonPool-worker-96,5,org.matsim.contrib.ev.example.RunEvExampleWithEvScoring] will linger despite being asked to die via interruption
[WARNING] thread Thread[#214,ForkJoinPool.commonPool-worker-49,5,org.matsim.contrib.ev.example.RunEvExampleWithEvScoring] will linger despite being asked to die via interruption
[WARNING] thread Thread[#217,ForkJoinPool.commonPool-worker-52,5,org.matsim.contrib.ev.example.RunEvExampleWithEvScoring] will linger despite being asked to die via interruption
[WARNING] thread Thread[#176,ForkJoinPool.commonPool-worker-11,5,org.matsim.contrib.ev.example.RunEvExampleWithEvScoring] will linger despite being asked to die via interruption
[WARNING] thread Thread[#219,ForkJoinPool.commonPool-worker-54,5,org.matsim.contrib.ev.example.RunEvExampleWithEvScoring] will linger despite being asked to die via interruption
[WARNING] thread Thread[#220,ForkJoinPool.commonPool-worker-55,5,org.matsim.contrib.ev.example.RunEvExampleWithEvScoring] will linger despite being asked to die via interruption
[WARNING] thread Thread[#274,ForkJoinPool.commonPool-worker-109,5,org.matsim.contrib.ev.example.RunEvExampleWithEvScoring] will linger despite being asked to die via interruption
[WARNING] thread Thread[#276,ForkJoinPool.commonPool-worker-111,5,org.matsim.contrib.ev.example.RunEvExampleWithEvScoring] will linger despite being asked to die via interruption
[WARNING] thread Thread[#223,ForkJoinPool.commonPool-worker-58,5,org.matsim.contrib.ev.example.RunEvExampleWithEvScoring] will linger despite being asked to die via interruption
[WARNING] thread Thread[#224,ForkJoinPool.commonPool-worker-59,5,org.matsim.contrib.ev.example.RunEvExampleWithEvScoring] will linger despite being asked to die via interruption
[WARNING] thread Thread[#225,ForkJoinPool.commonPool-worker-60,5,org.matsim.contrib.ev.example.RunEvExampleWithEvScoring] will linger despite being asked to die via interruption
[WARNING] thread Thread[#226,ForkJoinPool.commonPool-worker-61,5,org.matsim.contrib.ev.example.RunEvExampleWithEvScoring] will linger despite being asked to die via interruption
[WARNING] thread Thread[#227,ForkJoinPool.commonPool-worker-62,5,org.matsim.contrib.ev.example.RunEvExampleWithEvScoring] will linger despite being asked to die via interruption
[WARNING] thread Thread[#289,ForkJoinPool.commonPool-worker-124,5,org.matsim.contrib.ev.example.RunEvExampleWithEvScoring] will linger despite being asked to die via interruption
[WARNING] thread Thread[#198,ForkJoinPool.commonPool-worker-33,5,org.matsim.contrib.ev.example.RunEvExampleWithEvScoring] will linger despite being asked to die via interruption
[WARNING] thread Thread[#230,ForkJoinPool.commonPool-worker-65,5,org.matsim.contrib.ev.example.RunEvExampleWithEvScoring] will linger despite being asked to die via interruption
[WARNING] thread Thread[#231,ForkJoinPool.commonPool-worker-66,5,org.matsim.contrib.ev.example.RunEvExampleWithEvScoring] will linger despite being asked to die via interruption
[WARNING] thread Thread[#232,ForkJoinPool.commonPool-worker-67,5,org.matsim.contrib.ev.example.RunEvExampleWithEvScoring] will linger despite being asked to die via interruption
[WARNING] thread Thread[#233,ForkJoinPool.commonPool-worker-68,5,org.matsim.contrib.ev.example.RunEvExampleWithEvScoring] will linger despite being asked to die via interruption
[WARNING] thread Thread[#234,ForkJoinPool.commonPool-worker-69,5,org.matsim.contrib.ev.example.RunEvExampleWithEvScoring] will linger despite being asked to die via interruption
[WARNING] thread Thread[#235,ForkJoinPool.commonPool-worker-70,5,org.matsim.contrib.ev.example.RunEvExampleWithEvScoring] will linger despite being asked to die via interruption
[WARNING] thread Thread[#236,ForkJoinPool.commonPool-worker-71,5,org.matsim.contrib.ev.example.RunEvExampleWithEvScoring] will linger despite being asked to die via interruption
[WARNING] thread Thread[#237,ForkJoinPool.commonPool-worker-72,5,org.matsim.contrib.ev.example.RunEvExampleWithEvScoring] will linger despite being asked to die via interruption
[WARNING] thread Thread[#238,ForkJoinPool.commonPool-worker-73,5,org.matsim.contrib.ev.example.RunEvExampleWithEvScoring] will linger despite being asked to die via interruption
[WARNING] thread Thread[#239,ForkJoinPool.commonPool-worker-74,5,org.matsim.contrib.ev.example.RunEvExampleWithEvScoring] will linger despite being asked to die via interruption
[WARNING] thread Thread[#240,ForkJoinPool.commonPool-worker-75,5,org.matsim.contrib.ev.example.RunEvExampleWithEvScoring] will linger despite being asked to die via interruption
[WARNING] thread Thread[#241,ForkJoinPool.commonPool-worker-76,5,org.matsim.contrib.ev.example.RunEvExampleWithEvScoring] will linger despite being asked to die via interruption
[WARNING] thread Thread[#242,ForkJoinPool.commonPool-worker-77,5,org.matsim.contrib.ev.example.RunEvExampleWithEvScoring] will linger despite being asked to die via interruption
[WARNING] thread Thread[#243,ForkJoinPool.commonPool-worker-78,5,org.matsim.contrib.ev.example.RunEvExampleWithEvScoring] will linger despite being asked to die via interruption
[WARNING] thread Thread[#244,ForkJoinPool.commonPool-worker-79,5,org.matsim.contrib.ev.example.RunEvExampleWithEvScoring] will linger despite being asked to die via interruption
[WARNING] thread Thread[#245,ForkJoinPool.commonPool-worker-80,5,org.matsim.contrib.ev.example.RunEvExampleWithEvScoring] will linger despite being asked to die via interruption
[WARNING] thread Thread[#246,ForkJoinPool.commonPool-worker-81,5,org.matsim.contrib.ev.example.RunEvExampleWithEvScoring] will linger despite being asked to die via interruption
[WARNING] thread Thread[#247,ForkJoinPool.commonPool-worker-82,5,org.matsim.contrib.ev.example.RunEvExampleWithEvScoring] will linger despite being asked to die via interruption
[WARNING] thread Thread[#248,ForkJoinPool.commonPool-worker-83,5,org.matsim.contrib.ev.example.RunEvExampleWithEvScoring] will linger despite being asked to die via interruption
[WARNING] thread Thread[#209,ForkJoinPool.commonPool-worker-44,5,org.matsim.contrib.ev.example.RunEvExampleWithEvScoring] will linger despite being asked to die via interruption
[WARNING] thread Thread[#250,ForkJoinPool.commonPool-worker-85,5,org.matsim.contrib.ev.example.RunEvExampleWithEvScoring] will linger despite being asked to die via interruption
[WARNING] thread Thread[#251,ForkJoinPool.commonPool-worker-86,5,org.matsim.contrib.ev.example.RunEvExampleWithEvScoring] will linger despite being asked to die via interruption
[WARNING] thread Thread[#252,ForkJoinPool.commonPool-worker-87,5,org.matsim.contrib.ev.example.RunEvExampleWithEvScoring] will linger despite being asked to die via interruption
[WARNING] thread Thread[#253,ForkJoinPool.commonPool-worker-88,5,org.matsim.contrib.ev.example.RunEvExampleWithEvScoring] will linger despite being asked to die via interruption
[WARNING] thread Thread[#254,ForkJoinPool.commonPool-worker-89,5,org.matsim.contrib.ev.example.RunEvExampleWithEvScoring] will linger despite being asked to die via interruption
[WARNING] thread Thread[#255,ForkJoinPool.commonPool-worker-90,5,org.matsim.contrib.ev.example.RunEvExampleWithEvScoring] will linger despite being asked to die via interruption
[WARNING] thread Thread[#256,ForkJoinPool.commonPool-worker-91,5,org.matsim.contrib.ev.example.RunEvExampleWithEvScoring] will linger despite being asked to die via interruption
[WARNING] thread Thread[#257,ForkJoinPool.commonPool-worker-92,5,org.matsim.contrib.ev.example.RunEvExampleWithEvScoring] will linger despite being asked to die via interruption
[WARNING] thread Thread[#258,ForkJoinPool.commonPool-worker-93,5,org.matsim.contrib.ev.example.RunEvExampleWithEvScoring] will linger despite being asked to die via interruption
[WARNING] thread Thread[#259,ForkJoinPool.commonPool-worker-94,5,org.matsim.contrib.ev.example.RunEvExampleWithEvScoring] will linger despite being asked to die via interruption
[WARNING] thread Thread[#260,ForkJoinPool.commonPool-worker-95,5,org.matsim.contrib.ev.example.RunEvExampleWithEvScoring] will linger despite being asked to die via interruption
[WARNING] thread Thread[#262,ForkJoinPool.commonPool-worker-97,5,org.matsim.contrib.ev.example.RunEvExampleWithEvScoring] will linger despite being asked to die via interruption
[WARNING] thread Thread[#216,ForkJoinPool.commonPool-worker-51,5,org.matsim.contrib.ev.example.RunEvExampleWithEvScoring] will linger despite being asked to die via interruption
[WARNING] thread Thread[#263,ForkJoinPool.commonPool-worker-98,5,org.matsim.contrib.ev.example.RunEvExampleWithEvScoring] will linger despite being asked to die via interruption
[WARNING] thread Thread[#264,ForkJoinPool.commonPool-worker-99,5,org.matsim.contrib.ev.example.RunEvExampleWithEvScoring] will linger despite being asked to die via interruption
[WARNING] thread Thread[#265,ForkJoinPool.commonPool-worker-100,5,org.matsim.contrib.ev.example.RunEvExampleWithEvScoring] will linger despite being asked to die via interruption
[WARNING] thread Thread[#266,ForkJoinPool.commonPool-worker-101,5,org.matsim.contrib.ev.example.RunEvExampleWithEvScoring] will linger despite being asked to die via interruption
[WARNING] thread Thread[#267,ForkJoinPool.commonPool-worker-102,5,org.matsim.contrib.ev.example.RunEvExampleWithEvScoring] will linger despite being asked to die via interruption
[WARNING] thread Thread[#268,ForkJoinPool.commonPool-worker-103,5,org.matsim.contrib.ev.example.RunEvExampleWithEvScoring] will linger despite being asked to die via interruption
[WARNING] thread Thread[#269,ForkJoinPool.commonPool-worker-104,5,org.matsim.contrib.ev.example.RunEvExampleWithEvScoring] will linger despite being asked to die via interruption
[WARNING] thread Thread[#270,ForkJoinPool.commonPool-worker-105,5,org.matsim.contrib.ev.example.RunEvExampleWithEvScoring] will linger despite being asked to die via interruption
[WARNING] thread Thread[#271,ForkJoinPool.commonPool-worker-106,5,org.matsim.contrib.ev.example.RunEvExampleWithEvScoring] will linger despite being asked to die via interruption
[WARNING] thread Thread[#272,ForkJoinPool.commonPool-worker-107,5,org.matsim.contrib.ev.example.RunEvExampleWithEvScoring] will linger despite being asked to die via interruption
[WARNING] thread Thread[#273,ForkJoinPool.commonPool-worker-108,5,org.matsim.contrib.ev.example.RunEvExampleWithEvScoring] will linger despite being asked to die via interruption
[WARNING] thread Thread[#221,ForkJoinPool.commonPool-worker-56,5,org.matsim.contrib.ev.example.RunEvExampleWithEvScoring] will linger despite being asked to die via interruption
[WARNING] thread Thread[#275,ForkJoinPool.commonPool-worker-110,5,org.matsim.contrib.ev.example.RunEvExampleWithEvScoring] will linger despite being asked to die via interruption
[WARNING] thread Thread[#222,ForkJoinPool.commonPool-worker-57,5,org.matsim.contrib.ev.example.RunEvExampleWithEvScoring] will linger despite being asked to die via interruption
[WARNING] thread Thread[#277,ForkJoinPool.commonPool-worker-112,5,org.matsim.contrib.ev.example.RunEvExampleWithEvScoring] will linger despite being asked to die via interruption
[WARNING] thread Thread[#278,ForkJoinPool.commonPool-worker-113,5,org.matsim.contrib.ev.example.RunEvExampleWithEvScoring] will linger despite being asked to die via interruption
[WARNING] thread Thread[#279,ForkJoinPool.commonPool-worker-114,5,org.matsim.contrib.ev.example.RunEvExampleWithEvScoring] will linger despite being asked to die via interruption
[WARNING] thread Thread[#280,ForkJoinPool.commonPool-worker-115,5,org.matsim.contrib.ev.example.RunEvExampleWithEvScoring] will linger despite being asked to die via interruption
[WARNING] thread Thread[#281,ForkJoinPool.commonPool-worker-116,5,org.matsim.contrib.ev.example.RunEvExampleWithEvScoring] will linger despite being asked to die via interruption
[WARNING] thread Thread[#282,ForkJoinPool.commonPool-worker-117,5,org.matsim.contrib.ev.example.RunEvExampleWithEvScoring] will linger despite being asked to die via interruption
[WARNING] thread Thread[#283,ForkJoinPool.commonPool-worker-118,5,org.matsim.contrib.ev.example.RunEvExampleWithEvScoring] will linger despite being asked to die via interruption
[WARNING] thread Thread[#284,ForkJoinPool.commonPool-worker-119,5,org.matsim.contrib.ev.example.RunEvExampleWithEvScoring] will linger despite being asked to die via interruption
[WARNING] thread Thread[#285,ForkJoinPool.commonPool-worker-120,5,org.matsim.contrib.ev.example.RunEvExampleWithEvScoring] will linger despite being asked to die via interruption
[WARNING] thread Thread[#286,ForkJoinPool.commonPool-worker-121,5,org.matsim.contrib.ev.example.RunEvExampleWithEvScoring] will linger despite being asked to die via interruption
[WARNING] thread Thread[#287,ForkJoinPool.commonPool-worker-122,5,org.matsim.contrib.ev.example.RunEvExampleWithEvScoring] will linger despite being asked to die via interruption
[WARNING] thread Thread[#288,ForkJoinPool.commonPool-worker-123,5,org.matsim.contrib.ev.example.RunEvExampleWithEvScoring] will linger despite being asked to die via interruption
[WARNING] thread Thread[#228,ForkJoinPool.commonPool-worker-63,5,org.matsim.contrib.ev.example.RunEvExampleWithEvScoring] will linger despite being asked to die via interruption
[WARNING] thread Thread[#290,ForkJoinPool.commonPool-worker-125,5,org.matsim.contrib.ev.example.RunEvExampleWithEvScoring] will linger despite being asked to die via interruption
[WARNING] thread Thread[#291,ForkJoinPool.commonPool-worker-126,5,org.matsim.contrib.ev.example.RunEvExampleWithEvScoring] will linger despite being asked to die via interruption
[WARNING] thread Thread[#292,ForkJoinPool.commonPool-worker-127,5,org.matsim.contrib.ev.example.RunEvExampleWithEvScoring] will linger despite being asked to die via interruption
[WARNING] NOTE: 128 thread(s) did not finish despite being asked to  via interruption. This is not a problem with exec:java, it is a problem with the running code. Although not serious, it should be remedied.
[INFO] ------------------------------------------------------------------------
[INFO] BUILD SUCCESS
[INFO] ------------------------------------------------------------------------
[INFO] Total time:  45.640 s
[INFO] Finished at: 2024-12-20T07:52:48-07:00
[INFO] ------------------------------------------------------------------------
