[INFO] Error stacktraces are turned on.
[INFO] Scanning for projects...
[INFO] 
[INFO] -----------------------< org.matsim.contrib:ev >------------------------
[INFO] Building ev 2025.0-SNAPSHOT
[INFO]   from pom.xml
[INFO] --------------------------------[ jar ]---------------------------------
[INFO] 
[INFO] --- exec-maven-plugin:3.0.0:java (default-cli) @ ev ---
2024-11-26T17:04:36,391  INFO RunEvExampleWithEvScoring:59 Starting simulation run with the following arguments:
2024-11-26T17:04:36,392  INFO RunEvExampleWithEvScoring:60 args=[./scenarios/tinytown/ev_tiny_town_config.xml]
2024-11-26T17:04:36,412  INFO IOUtils:224 Resolved ./scenarios/tinytown/ev_tiny_town_config.xml to ./scenarios/tinytown/ev_tiny_town_config.xml
2024-11-26T17:04:36,415  INFO Config:550 setting context to [file:/home/isaacp/research/repos/EvMatsim/contribs/ev/]
2024-11-26T17:04:36,450  INFO Version:21 HV000001: Hibernate Validator 8.0.1.Final
2024-11-26T17:04:36,534  INFO MatsimXmlParser:170 starting to parse xml from url file:/home/isaacp/research/repos/EvMatsim/contribs/ev/./scenarios/tinytown/ev_tiny_town_config.xml ...
2024-11-26T17:04:36,556  INFO ConfigReader:105 using config_v2-reader
2024-11-26T17:04:36,556  INFO MatsimXmlParser:296 Trying to load http://www.matsim.org/files/dtd/config_v2.dtd. In some cases (e.g. network interface up but no connection), this may take a bit.
2024-11-26T17:04:36,913  INFO Config:550 setting context to [file:/home/isaacp/research/repos/EvMatsim/contribs/ev/./scenarios/tinytown/ev_tiny_town_config.xml]
2024-11-26T17:04:36,914  INFO CommandLine:511 Received 0 positional command line arguments:
2024-11-26T17:04:36,914  INFO CommandLine:512    
2024-11-26T17:04:36,914  INFO CommandLine:534 Received 0 command line options with 0 prefixes:
2024-11-26T17:04:36,927  INFO ScenarioLoaderImpl:135 loading network from file:/home/isaacp/research/repos/EvMatsim/contribs/ev/scenarios/tinytown/tiny_town_network.xml
2024-11-26T17:04:36,929  INFO MatsimXmlParser:170 starting to parse xml from url file:/home/isaacp/research/repos/EvMatsim/contribs/ev/scenarios/tinytown/tiny_town_network.xml ...
2024-11-26T17:04:36,993  INFO MatsimNetworkReader:122 using network_v2-reader.
2024-11-26T17:04:36,993  INFO MatsimXmlParser:296 Trying to load http://www.matsim.org/files/dtd/network_v2.dtd. In some cases (e.g. network interface up but no connection), this may take a bit.
2024-11-26T17:04:37,156  INFO NetworkImpl:165  node # 1
2024-11-26T17:04:37,157  INFO NetworkImpl:165  node # 4
2024-11-26T17:04:37,159  INFO NetworkImpl:165  node # 16
2024-11-26T17:04:37,162  INFO NetworkImpl:165  node # 64
2024-11-26T17:04:37,169  INFO NetworkImpl:165  node # 256
2024-11-26T17:04:37,176  INFO NetworkImpl:165  node # 1024
2024-11-26T17:04:37,186  INFO NetworkImpl:161  link # 1
2024-11-26T17:04:37,187  INFO NetworkImpl:161  link # 4
2024-11-26T17:04:37,188  INFO NetworkImpl:161  link # 16
2024-11-26T17:04:37,190  INFO NetworkImpl:161  link # 64
2024-11-26T17:04:37,198  INFO NetworkImpl:161  link # 256
2024-11-26T17:04:37,213  INFO NetworkImpl:161  link # 1024
2024-11-26T17:04:37,222  INFO ScenarioLoaderImpl:172 no facilities file set in config, therefore not loading any facilities.  This is not a problem except if you are using facilities
2024-11-26T17:04:37,222  INFO ScenarioLoaderImpl:188 no facility-attributes file set in config, not loading any facility attributes
2024-11-26T17:04:37,222  INFO ScenarioLoaderImpl:196 loading population from file:/home/isaacp/research/repos/EvMatsim/contribs/ev/scenarios/tinytown/tiny_town_plans.xml
2024-11-26T17:04:37,225  INFO MatsimXmlParser:170 starting to parse xml from url file:/home/isaacp/research/repos/EvMatsim/contribs/ev/scenarios/tinytown/tiny_town_plans.xml ...
2024-11-26T17:04:37,226  INFO PopulationReader:150 using plans_v4-reader.
2024-11-26T17:04:37,226  INFO MatsimXmlParser:296 Trying to load http://www.matsim.org/files/dtd/plans_v4.dtd. In some cases (e.g. network interface up but no connection), this may take a bit.
2024-11-26T17:04:37,389  INFO ParallelPopulationReaderMatsimV4:167 Start parallel population reading...
2024-11-26T17:04:37,395  INFO PopulationImpl:107  person # 1
2024-11-26T17:04:37,398  INFO PopulationImpl:107  person # 4
2024-11-26T17:04:37,404  INFO ParallelPopulationReaderMatsimV4:202 Finished parallel population reading...
2024-11-26T17:04:37,405  INFO PopulationUtils:1122  person # 10
2024-11-26T17:04:37,405  INFO ScenarioLoaderImpl:244 no person-attributes file set in config, not loading any person attributes
2024-11-26T17:04:37,405  INFO ScenarioLoaderImpl:258 no households file set in config, not loading households
2024-11-26T17:04:37,405  INFO ScenarioLoaderImpl:292 no transit schedule file set in config, not loading any transit schedule
2024-11-26T17:04:37,405  INFO ScenarioLoaderImpl:333 no transit vehicles file set in config, not loading any transit vehicles
2024-11-26T17:04:37,405  INFO ScenarioLoaderImpl:339 loading vehicles from tiny_town_evehicles.xml
2024-11-26T17:04:37,406  INFO MatsimXmlParser:170 starting to parse xml from url file:/home/isaacp/research/repos/EvMatsim/contribs/ev/scenarios/tinytown/tiny_town_evehicles.xml ...
2024-11-26T17:04:37,426  INFO MatsimXmlParser:296 Trying to load http://www.matsim.org/files/dtd/vehicleDefinitions_v2.0.xsd. In some cases (e.g. network interface up but no connection), this may take a bit.
2024-11-26T17:04:37,597  INFO MatsimXmlParser:296 Trying to load http://www.matsim.org/files/dtd/matsimCommon.xsd. In some cases (e.g. network interface up but no connection), this may take a bit.
2024-11-26T17:04:37,758  INFO MatsimXmlParser:296 Trying to load http://www.matsim.org/files/dtd/vehicleDefinitionsEnumTypes.xsd. In some cases (e.g. network interface up but no connection), this may take a bit.
2024-11-26T17:04:37,927  INFO MatsimVehicleReader$VehicleReader:77 Found following schemaLocation in vehicle definition file: http://www.matsim.org/files/dtd http://www.matsim.org/files/dtd/vehicleDefinitions_v2.0.xsd
2024-11-26T17:04:37,928  INFO VehicleReaderV2:24 Using org.matsim.vehicles.VehicleReaderV2
2024-11-26T17:04:37,941  INFO Counter:70 [VehiclesImpl] added vehicle # 1
2024-11-26T17:04:37,941  INFO Counter:70 [VehiclesImpl] added vehicle # 2
2024-11-26T17:04:37,941  INFO Counter:70 [VehiclesImpl] added vehicle # 4
2024-11-26T17:04:37,942  INFO Counter:70 [VehiclesImpl] added vehicle # 8
2024-11-26T17:04:37,948  INFO VspConfigConsistencyCheckerImpl:68 NOT running vsp config consistency check because vsp defaults checking level is set to IGNORE
2024-11-26T17:04:38,468  INFO SimStepParallelEventsManagerImpl:80 number of threads=1
2024-11-26T17:04:38,470  INFO MatsimXmlParser:170 starting to parse xml from url file:/home/isaacp/research/repos/EvMatsim/contribs/ev/scenarios/tinytown/tiny_town_chargers.xml ...
2024-11-26T17:04:38,471  INFO MatsimXmlParser:296 Trying to load http://matsim.org/files/dtd/chargers_v1.dtd. In some cases (e.g. network interface up but no connection), this may take a bit.
