[INFO] Scanning for projects...
[INFO] 
[INFO] -----------------------< org.matsim.contrib:ev >------------------------
[INFO] Building ev 2025.0-SNAPSHOT
[INFO]   from pom.xml
[INFO] --------------------------------[ jar ]---------------------------------
[INFO] 
[INFO] --- exec-maven-plugin:3.0.0:java (default-cli) @ ev ---
2024-11-12T17:54:47,920  INFO RunEvExampleWithEvScoring:59 Starting simulation run with the following arguments:
2024-11-12T17:54:47,921  INFO RunEvExampleWithEvScoring:60 args=[./scenarios/utahev/utahevconfig.xml]
2024-11-12T17:54:47,934  INFO IOUtils:224 Resolved ./scenarios/utahev/utahevconfig.xml to ./scenarios/utahev/utahevconfig.xml
2024-11-12T17:54:47,937  INFO Config:550 setting context to [file:/home/isaacp/research/repos/EvMatsim/contribs/ev/]
2024-11-12T17:54:47,973  INFO Version:21 HV000001: Hibernate Validator 8.0.1.Final
2024-11-12T17:54:48,057  INFO MatsimXmlParser:170 starting to parse xml from url file:/home/isaacp/research/repos/EvMatsim/contribs/ev/./scenarios/utahev/utahevconfig.xml ...
2024-11-12T17:54:48,078  INFO ConfigReader:105 using config_v2-reader
2024-11-12T17:54:48,079  INFO MatsimXmlParser:296 Trying to load http://www.matsim.org/files/dtd/config_v2.dtd. In some cases (e.g. network interface up but no connection), this may take a bit.
2024-11-12T17:54:48,426  WARN ConfigAliases:75 Config name 'controler' is deprecated, please use 'controller' instead. Config path: controler <  /
2024-11-12T17:54:48,429  WARN ConfigAliases:75 Config name 'planCalcScore' is deprecated, please use 'scoring' instead. Config path: planCalcScore <  /
2024-11-12T17:54:48,430  WARN ConfigAliases:75 Config name 'BrainExpBeta' is deprecated, please use 'brainExpBeta' instead. Config path: BrainExpBeta < scoring /
2024-11-12T17:54:48,431  WARN ScoringConfigGroup:283 traveling is deprecated config syntax; please use the more modern hierarchical format; your output_config.xml will be in the correct version; the old version will fail eventually, since we want to reduce the workload on this backwards compatibility (look into PlanCalcScoreConfigGroup or PlanCalcRouteConfigGroup if you want to know what we mean).
2024-11-12T17:54:48,433  WARN ConfigAliases:75 Config name 'strategy' is deprecated, please use 'replanning' instead. Config path: strategy <  /
2024-11-12T17:54:48,435  INFO Config:550 setting context to [file:/home/isaacp/research/repos/EvMatsim/contribs/ev/./scenarios/utahev/utahevconfig.xml]
2024-11-12T17:54:48,436  INFO CommandLine:511 Received 0 positional command line arguments:
2024-11-12T17:54:48,436  INFO CommandLine:512    
2024-11-12T17:54:48,436  INFO CommandLine:534 Received 0 command line options with 0 prefixes:
2024-11-12T17:54:48,448  INFO ScenarioLoaderImpl:135 loading network from file:/home/isaacp/research/repos/EvMatsim/contribs/ev/scenarios/utahev/utahevnetwork.xml
2024-11-12T17:54:48,449  INFO MatsimXmlParser:170 starting to parse xml from url file:/home/isaacp/research/repos/EvMatsim/contribs/ev/scenarios/utahev/utahevnetwork.xml ...
2024-11-12T17:54:48,512  INFO MatsimNetworkReader:122 using network_v2-reader.
2024-11-12T17:54:48,513  INFO MatsimXmlParser:296 Trying to load http://www.matsim.org/files/dtd/network_v2.dtd. In some cases (e.g. network interface up but no connection), this may take a bit.
2024-11-12T17:54:48,677  INFO NetworkImpl:165  node # 1
2024-11-12T17:54:48,677  INFO NetworkImpl:165  node # 4
2024-11-12T17:54:48,679  INFO NetworkImpl:165  node # 16
2024-11-12T17:54:48,683  INFO NetworkImpl:165  node # 64
2024-11-12T17:54:48,690  INFO NetworkImpl:165  node # 256
2024-11-12T17:54:48,699  INFO NetworkImpl:165  node # 1024
2024-11-12T17:54:48,717  INFO NetworkImpl:165  node # 4096
2024-11-12T17:54:48,753  INFO NetworkImpl:165  node # 16384
2024-11-12T17:54:48,778  INFO NetworkImpl:161  link # 1
2024-11-12T17:54:48,779  INFO NetworkImpl:161  link # 4
2024-11-12T17:54:48,781  INFO NetworkImpl:161  link # 16
2024-11-12T17:54:48,786  INFO NetworkImpl:161  link # 64
2024-11-12T17:54:48,795  INFO NetworkImpl:161  link # 256
2024-11-12T17:54:48,816  INFO NetworkImpl:161  link # 1024
2024-11-12T17:54:48,855  INFO NetworkImpl:161  link # 4096
2024-11-12T17:54:48,941  INFO NetworkImpl:161  link # 16384
2024-11-12T17:54:49,029  INFO ScenarioLoaderImpl:172 no facilities file set in config, therefore not loading any facilities.  This is not a problem except if you are using facilities
2024-11-12T17:54:49,029  INFO ScenarioLoaderImpl:188 no facility-attributes file set in config, not loading any facility attributes
2024-11-12T17:54:49,029  INFO ScenarioLoaderImpl:196 loading population from file:/home/isaacp/research/repos/EvMatsim/contribs/ev/scenarios/utahev/utahevplans.xml
2024-11-12T17:54:49,032  INFO MatsimXmlParser:170 starting to parse xml from url file:/home/isaacp/research/repos/EvMatsim/contribs/ev/scenarios/utahev/utahevplans.xml ...
2024-11-12T17:54:49,033  INFO PopulationReader:150 using plans_v4-reader.
2024-11-12T17:54:49,033  INFO MatsimXmlParser:296 Trying to load http://www.matsim.org/files/dtd/plans_v4.dtd. In some cases (e.g. network interface up but no connection), this may take a bit.
2024-11-12T17:54:49,343  INFO ParallelPopulationReaderMatsimV4:167 Start parallel population reading...
2024-11-12T17:54:49,349  INFO PopulationImpl:107  person # 1
2024-11-12T17:54:49,352  INFO PopulationImpl:107  person # 4
2024-11-12T17:54:49,353  INFO PopulationImpl:107  person # 16
2024-11-12T17:54:49,357  INFO PopulationImpl:107  person # 64
2024-11-12T17:54:49,364  INFO PopulationImpl:107  person # 256
2024-11-12T17:54:49,386  INFO PopulationImpl:107  person # 1024
2024-11-12T17:54:49,414  INFO PopulationImpl:107  person # 4096
2024-11-12T17:54:49,466  INFO ParallelPopulationReaderMatsimV4:202 Finished parallel population reading...
2024-11-12T17:54:49,466  INFO PopulationUtils:1122  person # 10294
2024-11-12T17:54:49,467  INFO ScenarioLoaderImpl:244 no person-attributes file set in config, not loading any person attributes
2024-11-12T17:54:49,467  INFO ScenarioLoaderImpl:258 no households file set in config, not loading households
2024-11-12T17:54:49,467  INFO ScenarioLoaderImpl:292 no transit schedule file set in config, not loading any transit schedule
2024-11-12T17:54:49,467  INFO ScenarioLoaderImpl:333 no transit vehicles file set in config, not loading any transit vehicles
2024-11-12T17:54:49,467  INFO ScenarioLoaderImpl:339 loading vehicles from utahevvehicles.xml
2024-11-12T17:54:49,469  INFO MatsimXmlParser:170 starting to parse xml from url file:/home/isaacp/research/repos/EvMatsim/contribs/ev/scenarios/utahev/utahevvehicles.xml ...
2024-11-12T17:54:49,488  INFO MatsimXmlParser:296 Trying to load http://www.matsim.org/files/dtd/vehicleDefinitions_v2.0.xsd. In some cases (e.g. network interface up but no connection), this may take a bit.
2024-11-12T17:54:49,656  INFO MatsimXmlParser:296 Trying to load http://www.matsim.org/files/dtd/matsimCommon.xsd. In some cases (e.g. network interface up but no connection), this may take a bit.
2024-11-12T17:54:49,819  INFO MatsimXmlParser:296 Trying to load http://www.matsim.org/files/dtd/vehicleDefinitionsEnumTypes.xsd. In some cases (e.g. network interface up but no connection), this may take a bit.
2024-11-12T17:54:49,986  INFO MatsimVehicleReader$VehicleReader:77 Found following schemaLocation in vehicle definition file: http://www.matsim.org/files/dtd http://www.matsim.org/files/dtd/vehicleDefinitions_v2.0.xsd
2024-11-12T17:54:49,987  INFO VehicleReaderV2:24 Using org.matsim.vehicles.VehicleReaderV2
2024-11-12T17:54:50,000  INFO Counter:70 [VehiclesImpl] added vehicle # 1
2024-11-12T17:54:50,000  INFO Counter:70 [VehiclesImpl] added vehicle # 2
2024-11-12T17:54:50,000  INFO Counter:70 [VehiclesImpl] added vehicle # 4
2024-11-12T17:54:50,001  INFO Counter:70 [VehiclesImpl] added vehicle # 8
2024-11-12T17:54:50,002  INFO Counter:70 [VehiclesImpl] added vehicle # 16
2024-11-12T17:54:50,004  INFO Counter:70 [VehiclesImpl] added vehicle # 32
2024-11-12T17:54:50,008  INFO Counter:70 [VehiclesImpl] added vehicle # 64
2024-11-12T17:54:50,014  INFO Counter:70 [VehiclesImpl] added vehicle # 128
2024-11-12T17:54:50,019  INFO Counter:70 [VehiclesImpl] added vehicle # 256
2024-11-12T17:54:50,026  INFO Counter:70 [VehiclesImpl] added vehicle # 512
2024-11-12T17:54:50,032  INFO Counter:70 [VehiclesImpl] added vehicle # 1024
2024-11-12T17:54:50,043  INFO Counter:70 [VehiclesImpl] added vehicle # 2048
2024-11-12T17:54:50,061  INFO Counter:70 [VehiclesImpl] added vehicle # 4096
2024-11-12T17:54:50,084  INFO Counter:70 [VehiclesImpl] added vehicle # 8192
2024-11-12T17:54:50,098  INFO VspConfigConsistencyCheckerImpl:68 NOT running vsp config consistency check because vsp defaults checking level is set to IGNORE
2024-11-12T17:54:50,694  INFO SimStepParallelEventsManagerImpl:80 number of threads=1
2024-11-12T17:54:50,696  INFO MatsimXmlParser:170 starting to parse xml from url file:/home/isaacp/research/repos/EvMatsim/contribs/ev/scenarios/utahev/utahevchargers.xml ...
2024-11-12T17:54:50,696  INFO MatsimXmlParser:296 Trying to load http://matsim.org/files/dtd/chargers_v1.dtd. In some cases (e.g. network interface up but no connection), this may take a bit.
2024-11-12T17:54:51,034  INFO EventsManagerImpl:138 adding Event-Handler: org.matsim.core.trafficmonitoring.TravelTimeCalculator
2024-11-12T17:54:51,034  INFO EventsManagerImpl:144   org.matsim.api.core.v01.events.handler.LinkEnterEventHandler
2024-11-12T17:54:51,034  INFO EventsManagerImpl:205     > org.matsim.api.core.v01.events.LinkEnterEvent
2024-11-12T17:54:51,034  INFO EventsManagerImpl:144   org.matsim.api.core.v01.events.handler.LinkLeaveEventHandler
2024-11-12T17:54:51,035  INFO EventsManagerImpl:205     > org.matsim.api.core.v01.events.LinkLeaveEvent
2024-11-12T17:54:51,035  INFO EventsManagerImpl:144   org.matsim.api.core.v01.events.handler.VehicleEntersTrafficEventHandler
2024-11-12T17:54:51,035  INFO EventsManagerImpl:205     > org.matsim.api.core.v01.events.VehicleEntersTrafficEvent
2024-11-12T17:54:51,035  INFO EventsManagerImpl:144   org.matsim.api.core.v01.events.handler.VehicleLeavesTrafficEventHandler
2024-11-12T17:54:51,035  INFO EventsManagerImpl:205     > org.matsim.api.core.v01.events.VehicleLeavesTrafficEvent
2024-11-12T17:54:51,035  INFO EventsManagerImpl:144   org.matsim.core.api.experimental.events.handler.VehicleArrivesAtFacilityEventHandler
2024-11-12T17:54:51,035  INFO EventsManagerImpl:205     > org.matsim.core.api.experimental.events.VehicleArrivesAtFacilityEvent
2024-11-12T17:54:51,036  INFO EventsManagerImpl:144   org.matsim.api.core.v01.events.handler.VehicleAbortsEventHandler
2024-11-12T17:54:51,036  INFO EventsManagerImpl:205     > org.matsim.api.core.v01.events.VehicleAbortsEvent
2024-11-12T17:54:51,036  INFO EventsManagerImpl:154 
2024-11-12T17:54:51,036  INFO EventsManagerImpl:138 adding Event-Handler: org.matsim.core.trafficmonitoring.TravelTimeCalculator
2024-11-12T17:54:51,036  INFO EventsManagerImpl:144   org.matsim.api.core.v01.events.handler.LinkEnterEventHandler
2024-11-12T17:54:51,036  INFO EventsManagerImpl:205     > org.matsim.api.core.v01.events.LinkEnterEvent
2024-11-12T17:54:51,036  INFO EventsManagerImpl:144   org.matsim.api.core.v01.events.handler.LinkLeaveEventHandler
2024-11-12T17:54:51,036  INFO EventsManagerImpl:205     > org.matsim.api.core.v01.events.LinkLeaveEvent
2024-11-12T17:54:51,036  INFO EventsManagerImpl:144   org.matsim.api.core.v01.events.handler.VehicleEntersTrafficEventHandler
2024-11-12T17:54:51,036  INFO EventsManagerImpl:205     > org.matsim.api.core.v01.events.VehicleEntersTrafficEvent
2024-11-12T17:54:51,036  INFO EventsManagerImpl:144   org.matsim.api.core.v01.events.handler.VehicleLeavesTrafficEventHandler
2024-11-12T17:54:51,036  INFO EventsManagerImpl:205     > org.matsim.api.core.v01.events.VehicleLeavesTrafficEvent
2024-11-12T17:54:51,036  INFO EventsManagerImpl:144   org.matsim.core.api.experimental.events.handler.VehicleArrivesAtFacilityEventHandler
2024-11-12T17:54:51,036  INFO EventsManagerImpl:205     > org.matsim.core.api.experimental.events.VehicleArrivesAtFacilityEvent
2024-11-12T17:54:51,037  INFO EventsManagerImpl:144   org.matsim.api.core.v01.events.handler.VehicleAbortsEventHandler
2024-11-12T17:54:51,037  INFO EventsManagerImpl:205     > org.matsim.api.core.v01.events.VehicleAbortsEvent
2024-11-12T17:54:51,037  INFO EventsManagerImpl:154 
2024-11-12T17:54:51,037  INFO OutputDirectoryHierarchy:278 ###########################################################
2024-11-12T17:54:51,037  INFO OutputDirectoryHierarchy:279 ### THE CONTROLER WILL DELETE THE EXISTING OUTPUT DIRECTORY:
2024-11-12T17:54:51,038  INFO OutputDirectoryHierarchy:280 ### ./scenarios/utahev/output
2024-11-12T17:54:51,038  WARN OutputDirectoryHierarchy:281 ### full path: /home/isaacp/research/repos/EvMatsim/contribs/ev/./scenarios/utahev/output
2024-11-12T17:54:51,038  INFO OutputDirectoryHierarchy:282 ###########################################################
2024-11-12T17:54:51,067  INFO StrategyManager:77 global innovation switch off after iteration: 0
2024-11-12T17:54:51,069  INFO GenericStrategyManagerImpl:330 added change request:  iteration=1 newWeight=0.0 strategy=RandomPlanSelector_ReRoute
2024-11-12T17:54:51,070  INFO GenericStrategyManagerImpl:362 setting PlanSelectorForRemoval to class org.matsim.core.replanning.selectors.WorstPlanForRemovalSelector
2024-11-12T17:54:51,070  WARN ConflictModule:47 The replanning.planSelectorForRemoval is not set to WorstPlanForRemovalSelectorWithConflicts. This will likely cause problems with the conflict logic if you are not sure what you are doing.
2024-11-12T17:54:51,072  INFO EventsManagerImpl:138 adding Event-Handler: org.matsim.core.scoring.ScoringFunctionsForPopulation
2024-11-12T17:54:51,072  INFO EventsManagerImpl:144   org.matsim.core.events.handler.BasicEventHandler
2024-11-12T17:54:51,072  INFO EventsManagerImpl:205     > org.matsim.api.core.v01.events.Event
2024-11-12T17:54:51,072  INFO EventsManagerImpl:154 
2024-11-12T17:54:51,072  INFO EventsManagerImpl:138 adding Event-Handler: org.matsim.core.scoring.ScoringFunctionsForPopulation
2024-11-12T17:54:51,072  INFO EventsManagerImpl:144   org.matsim.core.events.handler.BasicEventHandler
2024-11-12T17:54:51,072  INFO EventsManagerImpl:205     > org.matsim.api.core.v01.events.Event
2024-11-12T17:54:51,072  INFO EventsManagerImpl:154 
2024-11-12T17:54:51,074  INFO MatsimXmlParser:170 starting to parse xml from url file:/home/isaacp/research/repos/EvMatsim/contribs/ev/scenarios/utahev/utahevcounts.xml ...
2024-11-12T17:54:51,078  INFO MatsimCountsReader:107 using counts_v1-reader.
2024-11-12T17:54:51,078  INFO MatsimXmlParser:296 Trying to load http://matsim.org/files/dtd/counts_v1.xsd. In some cases (e.g. network interface up but no connection), this may take a bit.
2024-11-12T17:54:51,255  INFO CalcLinkStats:151  resetting `count' to zero.  This info is here since we want to check when this is happening during normal simulation runs.  kai, jan'11
2024-11-12T17:54:51,280  INFO EventsManagerImpl:138 adding Event-Handler: org.matsim.analysis.VolumesAnalyzer
2024-11-12T17:54:51,280  INFO EventsManagerImpl:144   org.matsim.api.core.v01.events.handler.LinkLeaveEventHandler
2024-11-12T17:54:51,280  INFO EventsManagerImpl:205     > org.matsim.api.core.v01.events.LinkLeaveEvent
2024-11-12T17:54:51,280  INFO EventsManagerImpl:144   org.matsim.api.core.v01.events.handler.VehicleEntersTrafficEventHandler
2024-11-12T17:54:51,280  INFO EventsManagerImpl:205     > org.matsim.api.core.v01.events.VehicleEntersTrafficEvent
2024-11-12T17:54:51,280  INFO EventsManagerImpl:154 
2024-11-12T17:54:51,280  INFO EventsManagerImpl:138 adding Event-Handler: org.matsim.analysis.VolumesAnalyzer
2024-11-12T17:54:51,280  INFO EventsManagerImpl:144   org.matsim.api.core.v01.events.handler.LinkLeaveEventHandler
2024-11-12T17:54:51,280  INFO EventsManagerImpl:205     > org.matsim.api.core.v01.events.LinkLeaveEvent
2024-11-12T17:54:51,280  INFO EventsManagerImpl:144   org.matsim.api.core.v01.events.handler.VehicleEntersTrafficEventHandler
2024-11-12T17:54:51,280  INFO EventsManagerImpl:205     > org.matsim.api.core.v01.events.VehicleEntersTrafficEvent
2024-11-12T17:54:51,280  INFO EventsManagerImpl:154 
2024-11-12T17:54:51,281  INFO EventsManagerImpl:138 adding Event-Handler: org.matsim.analysis.LegHistogram
2024-11-12T17:54:51,281  INFO EventsManagerImpl:144   org.matsim.api.core.v01.events.handler.PersonDepartureEventHandler
2024-11-12T17:54:51,281  INFO EventsManagerImpl:205     > org.matsim.api.core.v01.events.PersonDepartureEvent
2024-11-12T17:54:51,281  INFO EventsManagerImpl:144   org.matsim.api.core.v01.events.handler.PersonArrivalEventHandler
2024-11-12T17:54:51,281  INFO EventsManagerImpl:205     > org.matsim.api.core.v01.events.PersonArrivalEvent
2024-11-12T17:54:51,281  INFO EventsManagerImpl:144   org.matsim.api.core.v01.events.handler.PersonStuckEventHandler
2024-11-12T17:54:51,281  INFO EventsManagerImpl:205     > org.matsim.api.core.v01.events.PersonStuckEvent
2024-11-12T17:54:51,281  INFO EventsManagerImpl:154 
2024-11-12T17:54:51,281  INFO EventsManagerImpl:138 adding Event-Handler: org.matsim.analysis.LegHistogram
2024-11-12T17:54:51,281  INFO EventsManagerImpl:144   org.matsim.api.core.v01.events.handler.PersonDepartureEventHandler
2024-11-12T17:54:51,281  INFO EventsManagerImpl:205     > org.matsim.api.core.v01.events.PersonDepartureEvent
2024-11-12T17:54:51,281  INFO EventsManagerImpl:144   org.matsim.api.core.v01.events.handler.PersonArrivalEventHandler
2024-11-12T17:54:51,281  INFO EventsManagerImpl:205     > org.matsim.api.core.v01.events.PersonArrivalEvent
2024-11-12T17:54:51,282  INFO EventsManagerImpl:144   org.matsim.api.core.v01.events.handler.PersonStuckEventHandler
2024-11-12T17:54:51,282  INFO EventsManagerImpl:205     > org.matsim.api.core.v01.events.PersonStuckEvent
2024-11-12T17:54:51,282  INFO EventsManagerImpl:154 
2024-11-12T17:54:51,282  INFO EventsManagerImpl:138 adding Event-Handler: org.matsim.analysis.CalcLegTimes
2024-11-12T17:54:51,282  INFO EventsManagerImpl:144   org.matsim.api.core.v01.events.handler.PersonDepartureEventHandler
2024-11-12T17:54:51,282  INFO EventsManagerImpl:205     > org.matsim.api.core.v01.events.PersonDepartureEvent
2024-11-12T17:54:51,282  INFO EventsManagerImpl:144   org.matsim.api.core.v01.events.handler.PersonArrivalEventHandler
2024-11-12T17:54:51,282  INFO EventsManagerImpl:205     > org.matsim.api.core.v01.events.PersonArrivalEvent
2024-11-12T17:54:51,282  INFO EventsManagerImpl:144   org.matsim.api.core.v01.events.handler.ActivityEndEventHandler
2024-11-12T17:54:51,282  INFO EventsManagerImpl:205     > org.matsim.api.core.v01.events.ActivityEndEvent
2024-11-12T17:54:51,282  INFO EventsManagerImpl:144   org.matsim.api.core.v01.events.handler.ActivityStartEventHandler
2024-11-12T17:54:51,282  INFO EventsManagerImpl:205     > org.matsim.api.core.v01.events.ActivityStartEvent
2024-11-12T17:54:51,282  INFO EventsManagerImpl:154 
2024-11-12T17:54:51,282  INFO EventsManagerImpl:138 adding Event-Handler: org.matsim.analysis.CalcLegTimes
2024-11-12T17:54:51,282  INFO EventsManagerImpl:144   org.matsim.api.core.v01.events.handler.PersonDepartureEventHandler
2024-11-12T17:54:51,283  INFO EventsManagerImpl:205     > org.matsim.api.core.v01.events.PersonDepartureEvent
2024-11-12T17:54:51,283  INFO EventsManagerImpl:144   org.matsim.api.core.v01.events.handler.PersonArrivalEventHandler
2024-11-12T17:54:51,283  INFO EventsManagerImpl:205     > org.matsim.api.core.v01.events.PersonArrivalEvent
2024-11-12T17:54:51,283  INFO EventsManagerImpl:144   org.matsim.api.core.v01.events.handler.ActivityEndEventHandler
2024-11-12T17:54:51,283  INFO EventsManagerImpl:205     > org.matsim.api.core.v01.events.ActivityEndEvent
2024-11-12T17:54:51,283  INFO EventsManagerImpl:144   org.matsim.api.core.v01.events.handler.ActivityStartEventHandler
2024-11-12T17:54:51,283  INFO EventsManagerImpl:205     > org.matsim.api.core.v01.events.ActivityStartEvent
2024-11-12T17:54:51,283  INFO EventsManagerImpl:154 
2024-11-12T17:54:51,293  INFO AbstractController:57 Used Controler-Class: org.matsim.core.controler.NewControler
2024-11-12T17:54:51,294  INFO Config:510 ConfigConsistencyChecker with runtime type=class org.matsim.core.config.consistency.ConfigConsistencyCheckerImpl was already added; not adding it a second time
2024-11-12T17:54:51,294  INFO EventsManagerImpl:138 adding Event-Handler: org.matsim.contrib.ev.charging.ChargingEventSequenceCollector
2024-11-12T17:54:51,294  INFO EventsManagerImpl:144   org.matsim.contrib.ev.charging.QueuedAtChargerEventHandler
2024-11-12T17:54:51,294  INFO EventsManagerImpl:205     > org.matsim.contrib.ev.charging.QueuedAtChargerEvent
2024-11-12T17:54:51,294  INFO EventsManagerImpl:144   org.matsim.contrib.ev.charging.QuitQueueAtChargerEventHandler
2024-11-12T17:54:51,294  INFO EventsManagerImpl:205     > org.matsim.contrib.ev.charging.QuitQueueAtChargerEvent
2024-11-12T17:54:51,295  INFO EventsManagerImpl:144   org.matsim.contrib.ev.charging.ChargingStartEventHandler
2024-11-12T17:54:51,295  INFO EventsManagerImpl:205     > org.matsim.contrib.ev.charging.ChargingStartEvent
2024-11-12T17:54:51,295  INFO EventsManagerImpl:144   org.matsim.contrib.ev.charging.ChargingEndEventHandler
2024-11-12T17:54:51,295  INFO EventsManagerImpl:205     > org.matsim.contrib.ev.charging.ChargingEndEvent
2024-11-12T17:54:51,295  INFO EventsManagerImpl:154 
2024-11-12T17:54:51,295  INFO EventsManagerImpl:138 adding Event-Handler: org.matsim.contrib.ev.charging.ChargingEventSequenceCollector
2024-11-12T17:54:51,295  INFO EventsManagerImpl:144   org.matsim.contrib.ev.charging.QueuedAtChargerEventHandler
2024-11-12T17:54:51,295  INFO EventsManagerImpl:205     > org.matsim.contrib.ev.charging.QueuedAtChargerEvent
2024-11-12T17:54:51,295  INFO EventsManagerImpl:144   org.matsim.contrib.ev.charging.QuitQueueAtChargerEventHandler
2024-11-12T17:54:51,295  INFO EventsManagerImpl:205     > org.matsim.contrib.ev.charging.QuitQueueAtChargerEvent
2024-11-12T17:54:51,295  INFO EventsManagerImpl:144   org.matsim.contrib.ev.charging.ChargingStartEventHandler
2024-11-12T17:54:51,295  INFO EventsManagerImpl:205     > org.matsim.contrib.ev.charging.ChargingStartEvent
2024-11-12T17:54:51,296  INFO EventsManagerImpl:144   org.matsim.contrib.ev.charging.ChargingEndEventHandler
2024-11-12T17:54:51,296  INFO EventsManagerImpl:205     > org.matsim.contrib.ev.charging.ChargingEndEvent
2024-11-12T17:54:51,296  INFO EventsManagerImpl:154 
2024-11-12T17:54:51,296  INFO EventsManagerImpl:138 adding Event-Handler: org.matsim.contrib.ev.stats.ChargerPowerTimeProfileCalculator
2024-11-12T17:54:51,296  INFO EventsManagerImpl:144   org.matsim.contrib.ev.charging.ChargingStartEventHandler
2024-11-12T17:54:51,296  INFO EventsManagerImpl:205     > org.matsim.contrib.ev.charging.ChargingStartEvent
2024-11-12T17:54:51,296  INFO EventsManagerImpl:144   org.matsim.contrib.ev.charging.ChargingEndEventHandler
2024-11-12T17:54:51,296  INFO EventsManagerImpl:205     > org.matsim.contrib.ev.charging.ChargingEndEvent
2024-11-12T17:54:51,296  INFO EventsManagerImpl:154 
2024-11-12T17:54:51,296  INFO EventsManagerImpl:138 adding Event-Handler: org.matsim.contrib.ev.stats.ChargerPowerTimeProfileCalculator
2024-11-12T17:54:51,296  INFO EventsManagerImpl:144   org.matsim.contrib.ev.charging.ChargingStartEventHandler
2024-11-12T17:54:51,296  INFO EventsManagerImpl:205     > org.matsim.contrib.ev.charging.ChargingStartEvent
2024-11-12T17:54:51,296  INFO EventsManagerImpl:144   org.matsim.contrib.ev.charging.ChargingEndEventHandler
2024-11-12T17:54:51,297  INFO EventsManagerImpl:205     > org.matsim.contrib.ev.charging.ChargingEndEvent
2024-11-12T17:54:51,297  INFO EventsManagerImpl:154 
2024-11-12T17:54:51,297  INFO Injector:81 === printInjector start ===
2024-11-12T17:54:51,297  INFO Injector:85 org.matsim.contrib.ev.fleet.ElectricFleet 
2024-11-12T17:54:51,298  INFO Injector:86   --> provider: org.matsim.contrib.ev.example.RunEvExampleWithEvScoring$1$1@3f8a8eb5[Scopes.SINGLETON]
2024-11-12T17:54:51,298  INFO Injector:87   --> source: org.matsim.contrib.ev.example.RunEvExampleWithEvScoring$1.install(RunEvExampleWithEvScoring.java:82)
2024-11-12T17:54:51,298  INFO Injector:89   --> scope: eager singleton
2024-11-12T17:54:51,298  INFO Injector:94   ==full==> ProviderInstanceBinding{key=Key[type=org.matsim.contrib.ev.fleet.ElectricFleet, annotation=[none]], source=org.matsim.contrib.ev.example.RunEvExampleWithEvScoring$1.install(RunEvExampleWithEvScoring.java:82), scope=eager singleton, provider=org.matsim.contrib.ev.example.RunEvExampleWithEvScoring$1$1@3f8a8eb5}
2024-11-12T17:54:51,298  INFO Injector:96 
2024-11-12T17:54:51,299  INFO Injector:85 org.matsim.core.scoring.ScoringFunctionFactory 
2024-11-12T17:54:51,299  INFO Injector:86   --> provider: FactoryProxy{key=Key[type=org.matsim.core.scoring.ScoringFunctionFactory, annotation=[none]], provider=com.google.inject.internal.ConstructorBindingImpl$Factory@55aa882b}
2024-11-12T17:54:51,299  INFO Injector:87   --> source: org.matsim.contrib.ev.example.RunEvExampleWithEvScoring$1.install(RunEvExampleWithEvScoring.java:95)
2024-11-12T17:54:51,299  INFO Injector:89   --> scope: Scopes.NO_SCOPE
2024-11-12T17:54:51,299  INFO Injector:92   --> target: Key[type=org.matsim.contrib.ev.scoring.EvScoringFunctionFactory, annotation=[none]]
2024-11-12T17:54:51,299  INFO Injector:94   ==full==> LinkedKeyBinding{key=Key[type=org.matsim.core.scoring.ScoringFunctionFactory, annotation=[none]], source=org.matsim.contrib.ev.example.RunEvExampleWithEvScoring$1.install(RunEvExampleWithEvScoring.java:95), scope=Scopes.NO_SCOPE, target=Key[type=org.matsim.contrib.ev.scoring.EvScoringFunctionFactory, annotation=[none]]}
2024-11-12T17:54:51,299  INFO Injector:96 
2024-11-12T17:54:51,299  INFO Injector:85 org.matsim.contrib.ev.fleet.ElectricFleetSpecification 
2024-11-12T17:54:51,299  INFO Injector:86   --> provider: org.matsim.contrib.ev.fleet.ElectricFleetModule$1@4dbd99f9[Scopes.SINGLETON]
2024-11-12T17:54:51,299  INFO Injector:87   --> source: org.matsim.contrib.ev.fleet.ElectricFleetModule.install(ElectricFleetModule.java:47)
2024-11-12T17:54:51,299  INFO Injector:89   --> scope: eager singleton
2024-11-12T17:54:51,299  INFO Injector:94   ==full==> ProviderInstanceBinding{key=Key[type=org.matsim.contrib.ev.fleet.ElectricFleetSpecification, annotation=[none]], source=org.matsim.contrib.ev.fleet.ElectricFleetModule.install(ElectricFleetModule.java:47), scope=eager singleton, provider=org.matsim.contrib.ev.fleet.ElectricFleetModule$1@4dbd99f9}
2024-11-12T17:54:51,299  INFO Injector:96 
2024-11-12T17:54:51,299  INFO Injector:85 org.matsim.core.mobsim.qsim.AbstractQSimModule @com.google.inject.internal.Element(setName=,uniqueId=132, type=MULTIBINDER, keyType=)
2024-11-12T17:54:51,299  INFO Injector:86   --> provider: ConstantFactory{value=org.matsim.contrib.ev.fleet.ElectricFleetModule$2@1bae03bd}[Scopes.SINGLETON]
2024-11-12T17:54:51,300  INFO Injector:87   --> source: org.matsim.contrib.ev.fleet.ElectricFleetModule.install(ElectricFleetModule.java:57)
2024-11-12T17:54:51,300  INFO Injector:89   --> scope: eager singleton
2024-11-12T17:54:51,300  INFO Injector:94   ==full==> InstanceBinding{key=Key[type=org.matsim.core.mobsim.qsim.AbstractQSimModule, annotation=@com.google.inject.internal.Element(setName=,uniqueId=132, type=MULTIBINDER, keyType=)], source=org.matsim.contrib.ev.fleet.ElectricFleetModule.install(ElectricFleetModule.java:57), instance=org.matsim.contrib.ev.fleet.ElectricFleetModule$2@1bae03bd}
2024-11-12T17:54:51,300  INFO Injector:96 
2024-11-12T17:54:51,300  INFO Injector:85 org.matsim.api.core.v01.network.Network @com.google.inject.name.Named("chargers")
2024-11-12T17:54:51,306  INFO Injector:86   --> provider: FactoryProxy{key=Key[type=org.matsim.api.core.v01.network.Network, annotation=@com.google.inject.name.Named("chargers")], provider=@Provides org.matsim.core.scenario.ScenarioByInstanceModule.provideNetwork(ScenarioByInstanceModule.java:60)}[Scopes.SINGLETON]
2024-11-12T17:54:51,306  INFO Injector:87   --> source: org.matsim.contrib.ev.infrastructure.ChargingInfrastructureModule.install(ChargingInfrastructureModule.java:56)
2024-11-12T17:54:51,306  INFO Injector:89   --> scope: eager singleton
2024-11-12T17:54:51,307  INFO Injector:92   --> target: Key[type=org.matsim.api.core.v01.network.Network, annotation=[none]]
2024-11-12T17:54:51,307  INFO Injector:94   ==full==> LinkedKeyBinding{key=Key[type=org.matsim.api.core.v01.network.Network, annotation=@com.google.inject.name.Named("chargers")], source=org.matsim.contrib.ev.infrastructure.ChargingInfrastructureModule.install(ChargingInfrastructureModule.java:56), scope=eager singleton, target=Key[type=org.matsim.api.core.v01.network.Network, annotation=[none]]}
2024-11-12T17:54:51,307  INFO Injector:96 
2024-11-12T17:54:51,307  INFO Injector:85 org.matsim.contrib.ev.infrastructure.ChargingInfrastructureSpecification 
2024-11-12T17:54:51,307  INFO Injector:86   --> provider: org.matsim.contrib.ev.infrastructure.ChargingInfrastructureModule$$Lambda/0x00007f468447a050@16f5501b[Scopes.SINGLETON]
2024-11-12T17:54:51,307  INFO Injector:87   --> source: org.matsim.contrib.ev.infrastructure.ChargingInfrastructureModule.install(ChargingInfrastructureModule.java:58)
2024-11-12T17:54:51,307  INFO Injector:89   --> scope: eager singleton
2024-11-12T17:54:51,307  INFO Injector:94   ==full==> ProviderInstanceBinding{key=Key[type=org.matsim.contrib.ev.infrastructure.ChargingInfrastructureSpecification, annotation=[none]], source=org.matsim.contrib.ev.infrastructure.ChargingInfrastructureModule.install(ChargingInfrastructureModule.java:58), scope=eager singleton, provider=org.matsim.contrib.ev.infrastructure.ChargingInfrastructureModule$$Lambda/0x00007f468447a050@16f5501b}
2024-11-12T17:54:51,307  INFO Injector:96 
2024-11-12T17:54:51,307  INFO Injector:85 org.matsim.core.mobsim.qsim.AbstractQSimModule @com.google.inject.internal.Element(setName=,uniqueId=133, type=MULTIBINDER, keyType=)
2024-11-12T17:54:51,307  INFO Injector:86   --> provider: ConstantFactory{value=org.matsim.contrib.ev.infrastructure.ChargingInfrastructureModule$1@2e759551}[Scopes.SINGLETON]
2024-11-12T17:54:51,307  INFO Injector:87   --> source: org.matsim.contrib.ev.infrastructure.ChargingInfrastructureModule.install(ChargingInfrastructureModule.java:65)
2024-11-12T17:54:51,307  INFO Injector:89   --> scope: eager singleton
2024-11-12T17:54:51,308  INFO Injector:94   ==full==> InstanceBinding{key=Key[type=org.matsim.core.mobsim.qsim.AbstractQSimModule, annotation=@com.google.inject.internal.Element(setName=,uniqueId=133, type=MULTIBINDER, keyType=)], source=org.matsim.contrib.ev.infrastructure.ChargingInfrastructureModule.install(ChargingInfrastructureModule.java:65), instance=org.matsim.contrib.ev.infrastructure.ChargingInfrastructureModule$1@2e759551}
2024-11-12T17:54:51,308  INFO Injector:96 
2024-11-12T17:54:51,308  INFO Injector:85 org.matsim.contrib.ev.charging.ChargingLogic$Factory 
2024-11-12T17:54:51,308  INFO Injector:86   --> provider: org.matsim.contrib.ev.charging.ChargingModule$1@5557bd52
2024-11-12T17:54:51,308  INFO Injector:87   --> source: org.matsim.contrib.ev.charging.ChargingModule.install(ChargingModule.java:39)
2024-11-12T17:54:51,308  INFO Injector:89   --> scope: Scopes.NO_SCOPE
2024-11-12T17:54:51,308  INFO Injector:94   ==full==> ProviderInstanceBinding{key=Key[type=org.matsim.contrib.ev.charging.ChargingLogic$Factory, annotation=[none]], source=org.matsim.contrib.ev.charging.ChargingModule.install(ChargingModule.java:39), scope=Scopes.NO_SCOPE, provider=org.matsim.contrib.ev.charging.ChargingModule$1@5557bd52}
2024-11-12T17:54:51,308  INFO Injector:96 
2024-11-12T17:54:51,308  INFO Injector:85 org.matsim.contrib.ev.charging.ChargingPower$Factory 
2024-11-12T17:54:51,308  INFO Injector:86   --> provider: ConstantFactory{value=org.matsim.contrib.ev.charging.ChargingModule$$Lambda/0x00007f468447b3c8@5937d94d}[Scopes.SINGLETON]
2024-11-12T17:54:51,308  INFO Injector:87   --> source: org.matsim.contrib.ev.charging.ChargingModule.install(ChargingModule.java:47)
2024-11-12T17:54:51,308  INFO Injector:89   --> scope: eager singleton
2024-11-12T17:54:51,308  INFO Injector:94   ==full==> InstanceBinding{key=Key[type=org.matsim.contrib.ev.charging.ChargingPower$Factory, annotation=[none]], source=org.matsim.contrib.ev.charging.ChargingModule.install(ChargingModule.java:47), instance=org.matsim.contrib.ev.charging.ChargingModule$$Lambda/0x00007f468447b3c8@5937d94d}
2024-11-12T17:54:51,309  INFO Injector:96 
2024-11-12T17:54:51,309  INFO Injector:85 org.matsim.core.mobsim.qsim.AbstractQSimModule @com.google.inject.internal.Element(setName=,uniqueId=134, type=MULTIBINDER, keyType=)
2024-11-12T17:54:51,309  INFO Injector:86   --> provider: ConstantFactory{value=org.matsim.contrib.ev.charging.ChargingModule$2@3e8daf5b}[Scopes.SINGLETON]
2024-11-12T17:54:51,309  INFO Injector:87   --> source: org.matsim.contrib.ev.charging.ChargingModule.install(ChargingModule.java:49)
2024-11-12T17:54:51,309  INFO Injector:89   --> scope: eager singleton
2024-11-12T17:54:51,309  INFO Injector:94   ==full==> InstanceBinding{key=Key[type=org.matsim.core.mobsim.qsim.AbstractQSimModule, annotation=@com.google.inject.internal.Element(setName=,uniqueId=134, type=MULTIBINDER, keyType=)], source=org.matsim.contrib.ev.charging.ChargingModule.install(ChargingModule.java:49), instance=org.matsim.contrib.ev.charging.ChargingModule$2@3e8daf5b}
2024-11-12T17:54:51,309  INFO Injector:96 
2024-11-12T17:54:51,309  INFO Injector:85 org.matsim.contrib.ev.discharging.DriveEnergyConsumption$Factory 
2024-11-12T17:54:51,309  INFO Injector:86   --> provider: ConstantFactory{value=org.matsim.contrib.ev.discharging.DischargingModule$$Lambda/0x00007f468447bb30@546bf088}[Scopes.SINGLETON]
2024-11-12T17:54:51,309  INFO Injector:87   --> source: org.matsim.contrib.ev.discharging.DischargingModule.install(DischargingModule.java:36)
2024-11-12T17:54:51,309  INFO Injector:89   --> scope: eager singleton
2024-11-12T17:54:51,309  INFO Injector:94   ==full==> InstanceBinding{key=Key[type=org.matsim.contrib.ev.discharging.DriveEnergyConsumption$Factory, annotation=[none]], source=org.matsim.contrib.ev.discharging.DischargingModule.install(DischargingModule.java:36), instance=org.matsim.contrib.ev.discharging.DischargingModule$$Lambda/0x00007f468447bb30@546bf088}
2024-11-12T17:54:51,309  INFO Injector:96 
2024-11-12T17:54:51,309  INFO Injector:85 org.matsim.contrib.ev.temperature.TemperatureService 
2024-11-12T17:54:51,309  INFO Injector:86   --> provider: ConstantFactory{value=org.matsim.contrib.ev.discharging.DischargingModule$$Lambda/0x00007f468447e000@79e67dd8}[Scopes.SINGLETON]
2024-11-12T17:54:51,309  INFO Injector:87   --> source: org.matsim.contrib.ev.discharging.DischargingModule.install(DischargingModule.java:37)
2024-11-12T17:54:51,309  INFO Injector:89   --> scope: eager singleton
2024-11-12T17:54:51,310  INFO Injector:94   ==full==> InstanceBinding{key=Key[type=org.matsim.contrib.ev.temperature.TemperatureService, annotation=[none]], source=org.matsim.contrib.ev.discharging.DischargingModule.install(DischargingModule.java:37), instance=org.matsim.contrib.ev.discharging.DischargingModule$$Lambda/0x00007f468447e000@79e67dd8}
2024-11-12T17:54:51,310  INFO Injector:96 
2024-11-12T17:54:51,310  INFO Injector:85 org.matsim.contrib.ev.discharging.AuxEnergyConsumption$Factory 
2024-11-12T17:54:51,310  INFO Injector:86   --> provider: FactoryProxy{key=Key[type=org.matsim.contrib.ev.discharging.AuxEnergyConsumption$Factory, annotation=[none]], provider=com.google.inject.internal.ConstructorBindingImpl$Factory@452f9f77}[Scopes.SINGLETON]
2024-11-12T17:54:51,310  INFO Injector:87   --> source: org.matsim.contrib.ev.discharging.DischargingModule.install(DischargingModule.java:38)
2024-11-12T17:54:51,310  INFO Injector:89   --> scope: Scopes.SINGLETON
2024-11-12T17:54:51,310  INFO Injector:92   --> target: Key[type=org.matsim.contrib.ev.discharging.OhdeSlaskiAuxEnergyConsumption$Factory, annotation=[none]]
2024-11-12T17:54:51,310  INFO Injector:94   ==full==> LinkedKeyBinding{key=Key[type=org.matsim.contrib.ev.discharging.AuxEnergyConsumption$Factory, annotation=[none]], source=org.matsim.contrib.ev.discharging.DischargingModule.install(DischargingModule.java:38), scope=Scopes.SINGLETON, target=Key[type=org.matsim.contrib.ev.discharging.OhdeSlaskiAuxEnergyConsumption$Factory, annotation=[none]]}
2024-11-12T17:54:51,310  INFO Injector:96 
2024-11-12T17:54:51,310  INFO Injector:85 org.matsim.core.mobsim.qsim.AbstractQSimModule @com.google.inject.internal.Element(setName=,uniqueId=135, type=MULTIBINDER, keyType=)
2024-11-12T17:54:51,310  INFO Injector:86   --> provider: ConstantFactory{value=org.matsim.contrib.ev.discharging.DischargingModule$1@4dd3f301}[Scopes.SINGLETON]
2024-11-12T17:54:51,310  INFO Injector:87   --> source: org.matsim.contrib.ev.discharging.DischargingModule.install(DischargingModule.java:40)
2024-11-12T17:54:51,310  INFO Injector:89   --> scope: eager singleton
2024-11-12T17:54:51,310  INFO Injector:94   ==full==> InstanceBinding{key=Key[type=org.matsim.core.mobsim.qsim.AbstractQSimModule, annotation=@com.google.inject.internal.Element(setName=,uniqueId=135, type=MULTIBINDER, keyType=)], source=org.matsim.contrib.ev.discharging.DischargingModule.install(DischargingModule.java:40), instance=org.matsim.contrib.ev.discharging.DischargingModule$1@4dd3f301}
2024-11-12T17:54:51,310  INFO Injector:96 
2024-11-12T17:54:51,310  INFO Injector:85 org.matsim.core.events.handler.EventHandler @com.google.inject.internal.Element(setName=,uniqueId=136, type=MULTIBINDER, keyType=)
2024-11-12T17:54:51,310  INFO Injector:86   --> provider: FactoryProxy{key=Key[type=org.matsim.core.events.handler.EventHandler, annotation=@com.google.inject.internal.Element(setName=,uniqueId=136, type=MULTIBINDER, keyType=)], provider=com.google.inject.internal.ConstructorBindingImpl$Factory@2235db2e[Scopes.SINGLETON]}
2024-11-12T17:54:51,310  INFO Injector:87   --> source: org.matsim.contrib.ev.stats.EvStatsModule.install(EvStatsModule.java:45)
2024-11-12T17:54:51,310  INFO Injector:89   --> scope: Scopes.NO_SCOPE
2024-11-12T17:54:51,311  INFO Injector:92   --> target: Key[type=org.matsim.contrib.ev.charging.ChargingEventSequenceCollector, annotation=[none]]
2024-11-12T17:54:51,311  INFO Injector:94   ==full==> LinkedKeyBinding{key=Key[type=org.matsim.core.events.handler.EventHandler, annotation=@com.google.inject.internal.Element(setName=,uniqueId=136, type=MULTIBINDER, keyType=)], source=org.matsim.contrib.ev.stats.EvStatsModule.install(EvStatsModule.java:45), scope=Scopes.NO_SCOPE, target=Key[type=org.matsim.contrib.ev.charging.ChargingEventSequenceCollector, annotation=[none]]}
2024-11-12T17:54:51,311  INFO Injector:96 
2024-11-12T17:54:51,311  INFO Injector:85 org.matsim.core.controler.listener.ControlerListener @com.google.inject.internal.Element(setName=,uniqueId=137, type=MULTIBINDER, keyType=)
2024-11-12T17:54:51,311  INFO Injector:86   --> provider: FactoryProxy{key=Key[type=org.matsim.core.controler.listener.ControlerListener, annotation=@com.google.inject.internal.Element(setName=,uniqueId=137, type=MULTIBINDER, keyType=)], provider=com.google.inject.internal.ConstructorBindingImpl$Factory@29519050}[Scopes.SINGLETON]
2024-11-12T17:54:51,311  INFO Injector:87   --> source: org.matsim.contrib.ev.stats.EvStatsModule.install(EvStatsModule.java:46)
2024-11-12T17:54:51,311  INFO Injector:89   --> scope: Scopes.SINGLETON
2024-11-12T17:54:51,311  INFO Injector:92   --> target: Key[type=org.matsim.contrib.ev.stats.ChargingProceduresCSVWriter, annotation=[none]]
2024-11-12T17:54:51,311  INFO Injector:94   ==full==> LinkedKeyBinding{key=Key[type=org.matsim.core.controler.listener.ControlerListener, annotation=@com.google.inject.internal.Element(setName=,uniqueId=137, type=MULTIBINDER, keyType=)], source=org.matsim.contrib.ev.stats.EvStatsModule.install(EvStatsModule.java:46), scope=Scopes.SINGLETON, target=Key[type=org.matsim.contrib.ev.stats.ChargingProceduresCSVWriter, annotation=[none]]}
2024-11-12T17:54:51,311  INFO Injector:96 
2024-11-12T17:54:51,311  INFO Injector:85 org.matsim.core.mobsim.qsim.AbstractQSimModule @com.google.inject.internal.Element(setName=,uniqueId=138, type=MULTIBINDER, keyType=)
2024-11-12T17:54:51,311  INFO Injector:86   --> provider: ConstantFactory{value=org.matsim.contrib.ev.stats.EvStatsModule$1@268bb2ed}[Scopes.SINGLETON]
2024-11-12T17:54:51,311  INFO Injector:87   --> source: org.matsim.contrib.ev.stats.EvStatsModule.install(EvStatsModule.java:48)
2024-11-12T17:54:51,311  INFO Injector:89   --> scope: eager singleton
2024-11-12T17:54:51,311  INFO Injector:94   ==full==> InstanceBinding{key=Key[type=org.matsim.core.mobsim.qsim.AbstractQSimModule, annotation=@com.google.inject.internal.Element(setName=,uniqueId=138, type=MULTIBINDER, keyType=)], source=org.matsim.contrib.ev.stats.EvStatsModule.install(EvStatsModule.java:48), instance=org.matsim.contrib.ev.stats.EvStatsModule$1@268bb2ed}
2024-11-12T17:54:51,311  INFO Injector:96 
2024-11-12T17:54:51,311  INFO Injector:85 org.matsim.core.events.handler.EventHandler @com.google.inject.internal.Element(setName=,uniqueId=139, type=MULTIBINDER, keyType=)
2024-11-12T17:54:51,311  INFO Injector:86   --> provider: FactoryProxy{key=Key[type=org.matsim.core.events.handler.EventHandler, annotation=@com.google.inject.internal.Element(setName=,uniqueId=139, type=MULTIBINDER, keyType=)], provider=com.google.inject.internal.ConstructorBindingImpl$Factory@6393201f[Scopes.SINGLETON]}
2024-11-12T17:54:51,311  INFO Injector:87   --> source: org.matsim.contrib.ev.stats.EvStatsModule.install(EvStatsModule.java:66)
2024-11-12T17:54:51,311  INFO Injector:89   --> scope: Scopes.NO_SCOPE
2024-11-12T17:54:51,311  INFO Injector:92   --> target: Key[type=org.matsim.contrib.ev.stats.ChargerPowerTimeProfileCalculator, annotation=[none]]
2024-11-12T17:54:51,311  INFO Injector:94   ==full==> LinkedKeyBinding{key=Key[type=org.matsim.core.events.handler.EventHandler, annotation=@com.google.inject.internal.Element(setName=,uniqueId=139, type=MULTIBINDER, keyType=)], source=org.matsim.contrib.ev.stats.EvStatsModule.install(EvStatsModule.java:66), scope=Scopes.NO_SCOPE, target=Key[type=org.matsim.contrib.ev.stats.ChargerPowerTimeProfileCalculator, annotation=[none]]}
2024-11-12T17:54:51,311  INFO Injector:96 
2024-11-12T17:54:51,312  INFO Injector:85 org.matsim.core.controler.listener.ControlerListener @com.google.inject.internal.Element(setName=,uniqueId=140, type=MULTIBINDER, keyType=)
2024-11-12T17:54:51,312  INFO Injector:86   --> provider: org.matsim.contrib.ev.stats.EvStatsModule$2@5e4035c1
2024-11-12T17:54:51,312  INFO Injector:87   --> source: org.matsim.contrib.ev.stats.EvStatsModule.install(EvStatsModule.java:67)
2024-11-12T17:54:51,312  INFO Injector:89   --> scope: Scopes.NO_SCOPE
2024-11-12T17:54:51,312  INFO Injector:94   ==full==> ProviderInstanceBinding{key=Key[type=org.matsim.core.controler.listener.ControlerListener, annotation=@com.google.inject.internal.Element(setName=,uniqueId=140, type=MULTIBINDER, keyType=)], source=org.matsim.contrib.ev.stats.EvStatsModule.install(EvStatsModule.java:67), scope=Scopes.NO_SCOPE, provider=org.matsim.contrib.ev.stats.EvStatsModule$2@5e4035c1}
2024-11-12T17:54:51,312  INFO Injector:96 
2024-11-12T17:54:51,312  INFO Injector:85 org.matsim.core.mobsim.qsim.AbstractQSimModule @com.google.inject.internal.Element(setName=,uniqueId=141, type=MULTIBINDER, keyType=)
2024-11-12T17:54:51,312  INFO Injector:86   --> provider: ConstantFactory{value=org.matsim.contrib.ev.EvModule$1@24d67470}[Scopes.SINGLETON]
2024-11-12T17:54:51,312  INFO Injector:87   --> source: org.matsim.contrib.ev.EvModule.install(EvModule.java:41)
2024-11-12T17:54:51,312  INFO Injector:89   --> scope: eager singleton
2024-11-12T17:54:51,312  INFO Injector:94   ==full==> InstanceBinding{key=Key[type=org.matsim.core.mobsim.qsim.AbstractQSimModule, annotation=@com.google.inject.internal.Element(setName=,uniqueId=141, type=MULTIBINDER, keyType=)], source=org.matsim.contrib.ev.EvModule.install(EvModule.java:41), instance=org.matsim.contrib.ev.EvModule$1@24d67470}
2024-11-12T17:54:51,312  INFO Injector:96 
2024-11-12T17:54:51,312  INFO Injector:85 org.matsim.core.router.RoutingModule @com.google.inject.name.Named("car")
2024-11-12T17:54:51,312  INFO Injector:86   --> provider: org.matsim.contrib.ev.routing.EvNetworkRoutingProvider@412b0711
2024-11-12T17:54:51,312  INFO Injector:87   --> source: org.matsim.contrib.ev.example.RunEvExampleWithEvScoring$1.install(RunEvExampleWithEvScoring.java:98)
2024-11-12T17:54:51,312  INFO Injector:89   --> scope: Scopes.NO_SCOPE
2024-11-12T17:54:51,312  INFO Injector:94   ==full==> ProviderInstanceBinding{key=Key[type=org.matsim.core.router.RoutingModule, annotation=@com.google.inject.name.Named("car")], source=org.matsim.contrib.ev.example.RunEvExampleWithEvScoring$1.install(RunEvExampleWithEvScoring.java:98), scope=Scopes.NO_SCOPE, provider=org.matsim.contrib.ev.routing.EvNetworkRoutingProvider@412b0711}
2024-11-12T17:54:51,312  INFO Injector:96 
2024-11-12T17:54:51,312  INFO Injector:85 org.matsim.api.core.v01.Scenario 
2024-11-12T17:54:51,312  INFO Injector:86   --> provider: ConstantFactory{value=org.matsim.core.scenario.MutableScenario@5a7ecf3d}[Scopes.SINGLETON]
2024-11-12T17:54:51,312  INFO Injector:87   --> source: org.matsim.core.scenario.ScenarioByInstanceModule.install(ScenarioByInstanceModule.java:52)
2024-11-12T17:54:51,312  INFO Injector:89   --> scope: eager singleton
2024-11-12T17:54:51,313  INFO Injector:94   ==full==> InstanceBinding{key=Key[type=org.matsim.api.core.v01.Scenario, annotation=[none]], source=org.matsim.core.scenario.ScenarioByInstanceModule.install(ScenarioByInstanceModule.java:52), instance=org.matsim.core.scenario.MutableScenario@5a7ecf3d}
2024-11-12T17:54:51,313  INFO Injector:96 
2024-11-12T17:54:51,313  INFO Injector:85 org.matsim.facilities.ActivityFacilities 
2024-11-12T17:54:51,313  INFO Injector:86   --> provider: @Provides org.matsim.core.scenario.ScenarioByInstanceModule.provideActivityFacilities(ScenarioByInstanceModule.java:72)
2024-11-12T17:54:51,313  INFO Injector:87   --> source: org.matsim.facilities.ActivityFacilities org.matsim.core.scenario.ScenarioByInstanceModule.provideActivityFacilities(org.matsim.api.core.v01.Scenario)
2024-11-12T17:54:51,313  INFO Injector:89   --> scope: Scopes.NO_SCOPE
2024-11-12T17:54:51,313  INFO Injector:94   ==full==> ProviderInstanceBinding{key=Key[type=org.matsim.facilities.ActivityFacilities, annotation=[none]], source=org.matsim.facilities.ActivityFacilities org.matsim.core.scenario.ScenarioByInstanceModule.provideActivityFacilities(org.matsim.api.core.v01.Scenario), scope=Scopes.NO_SCOPE, provider=@Provides org.matsim.core.scenario.ScenarioByInstanceModule.provideActivityFacilities(ScenarioByInstanceModule.java:72)}
2024-11-12T17:54:51,313  INFO Injector:96 
2024-11-12T17:54:51,313  INFO Injector:85 org.matsim.households.Households 
2024-11-12T17:54:51,313  INFO Injector:86   --> provider: @Provides org.matsim.core.scenario.ScenarioByInstanceModule.provideHouseholds(ScenarioByInstanceModule.java:77)
2024-11-12T17:54:51,313  INFO Injector:87   --> source: org.matsim.households.Households org.matsim.core.scenario.ScenarioByInstanceModule.provideHouseholds(org.matsim.api.core.v01.Scenario)
2024-11-12T17:54:51,313  INFO Injector:89   --> scope: Scopes.NO_SCOPE
2024-11-12T17:54:51,313  INFO Injector:94   ==full==> ProviderInstanceBinding{key=Key[type=org.matsim.households.Households, annotation=[none]], source=org.matsim.households.Households org.matsim.core.scenario.ScenarioByInstanceModule.provideHouseholds(org.matsim.api.core.v01.Scenario), scope=Scopes.NO_SCOPE, provider=@Provides org.matsim.core.scenario.ScenarioByInstanceModule.provideHouseholds(ScenarioByInstanceModule.java:77)}
2024-11-12T17:54:51,313  INFO Injector:96 
2024-11-12T17:54:51,313  INFO Injector:85 org.matsim.lanes.Lanes 
2024-11-12T17:54:51,314  INFO Injector:86   --> provider: @Provides org.matsim.core.scenario.ScenarioByInstanceModule.provideLanes(ScenarioByInstanceModule.java:87)
2024-11-12T17:54:51,314  INFO Injector:87   --> source: org.matsim.lanes.Lanes org.matsim.core.scenario.ScenarioByInstanceModule.provideLanes(org.matsim.api.core.v01.Scenario)
2024-11-12T17:54:51,314  INFO Injector:89   --> scope: Scopes.NO_SCOPE
2024-11-12T17:54:51,314  INFO Injector:94   ==full==> ProviderInstanceBinding{key=Key[type=org.matsim.lanes.Lanes, annotation=[none]], source=org.matsim.lanes.Lanes org.matsim.core.scenario.ScenarioByInstanceModule.provideLanes(org.matsim.api.core.v01.Scenario), scope=Scopes.NO_SCOPE, provider=@Provides org.matsim.core.scenario.ScenarioByInstanceModule.provideLanes(ScenarioByInstanceModule.java:87)}
2024-11-12T17:54:51,314  INFO Injector:96 
2024-11-12T17:54:51,314  INFO Injector:85 org.matsim.api.core.v01.network.Network 
2024-11-12T17:54:51,314  INFO Injector:86   --> provider: @Provides org.matsim.core.scenario.ScenarioByInstanceModule.provideNetwork(ScenarioByInstanceModule.java:60)
2024-11-12T17:54:51,314  INFO Injector:87   --> source: org.matsim.api.core.v01.network.Network org.matsim.core.scenario.ScenarioByInstanceModule.provideNetwork(org.matsim.api.core.v01.Scenario)
2024-11-12T17:54:51,314  INFO Injector:89   --> scope: Scopes.NO_SCOPE
2024-11-12T17:54:51,314  INFO Injector:94   ==full==> ProviderInstanceBinding{key=Key[type=org.matsim.api.core.v01.network.Network, annotation=[none]], source=org.matsim.api.core.v01.network.Network org.matsim.core.scenario.ScenarioByInstanceModule.provideNetwork(org.matsim.api.core.v01.Scenario), scope=Scopes.NO_SCOPE, provider=@Provides org.matsim.core.scenario.ScenarioByInstanceModule.provideNetwork(ScenarioByInstanceModule.java:60)}
2024-11-12T17:54:51,314  INFO Injector:96 
2024-11-12T17:54:51,314  INFO Injector:85 org.matsim.api.core.v01.population.Population 
2024-11-12T17:54:51,314  INFO Injector:86   --> provider: @Provides org.matsim.core.scenario.ScenarioByInstanceModule.providePopulation(ScenarioByInstanceModule.java:64)
2024-11-12T17:54:51,314  INFO Injector:87   --> source: org.matsim.api.core.v01.population.Population org.matsim.core.scenario.ScenarioByInstanceModule.providePopulation(org.matsim.api.core.v01.Scenario)
2024-11-12T17:54:51,314  INFO Injector:89   --> scope: Scopes.NO_SCOPE
2024-11-12T17:54:51,314  INFO Injector:94   ==full==> ProviderInstanceBinding{key=Key[type=org.matsim.api.core.v01.population.Population, annotation=[none]], source=org.matsim.api.core.v01.population.Population org.matsim.core.scenario.ScenarioByInstanceModule.providePopulation(org.matsim.api.core.v01.Scenario), scope=Scopes.NO_SCOPE, provider=@Provides org.matsim.core.scenario.ScenarioByInstanceModule.providePopulation(ScenarioByInstanceModule.java:64)}
2024-11-12T17:54:51,314  INFO Injector:96 
2024-11-12T17:54:51,314  INFO Injector:85 org.matsim.api.core.v01.population.PopulationFactory 
2024-11-12T17:54:51,315  INFO Injector:86   --> provider: @Provides org.matsim.core.scenario.ScenarioByInstanceModule.providePopulationFactory(ScenarioByInstanceModule.java:68)
2024-11-12T17:54:51,315  INFO Injector:87   --> source: org.matsim.api.core.v01.population.PopulationFactory org.matsim.core.scenario.ScenarioByInstanceModule.providePopulationFactory(org.matsim.api.core.v01.population.Population)
2024-11-12T17:54:51,315  INFO Injector:89   --> scope: Scopes.NO_SCOPE
2024-11-12T17:54:51,315  INFO Injector:94   ==full==> ProviderInstanceBinding{key=Key[type=org.matsim.api.core.v01.population.PopulationFactory, annotation=[none]], source=org.matsim.api.core.v01.population.PopulationFactory org.matsim.core.scenario.ScenarioByInstanceModule.providePopulationFactory(org.matsim.api.core.v01.population.Population), scope=Scopes.NO_SCOPE, provider=@Provides org.matsim.core.scenario.ScenarioByInstanceModule.providePopulationFactory(ScenarioByInstanceModule.java:68)}
2024-11-12T17:54:51,315  INFO Injector:96 
2024-11-12T17:54:51,315  INFO Injector:85 org.matsim.vehicles.Vehicles 
2024-11-12T17:54:51,315  INFO Injector:86   --> provider: @Provides org.matsim.core.scenario.ScenarioByInstanceModule.provideVehicles(ScenarioByInstanceModule.java:82)
2024-11-12T17:54:51,315  INFO Injector:87   --> source: org.matsim.vehicles.Vehicles org.matsim.core.scenario.ScenarioByInstanceModule.provideVehicles(org.matsim.api.core.v01.Scenario)
2024-11-12T17:54:51,315  INFO Injector:89   --> scope: Scopes.NO_SCOPE
2024-11-12T17:54:51,315  INFO Injector:94   ==full==> ProviderInstanceBinding{key=Key[type=org.matsim.vehicles.Vehicles, annotation=[none]], source=org.matsim.vehicles.Vehicles org.matsim.core.scenario.ScenarioByInstanceModule.provideVehicles(org.matsim.api.core.v01.Scenario), scope=Scopes.NO_SCOPE, provider=@Provides org.matsim.core.scenario.ScenarioByInstanceModule.provideVehicles(ScenarioByInstanceModule.java:82)}
2024-11-12T17:54:51,316  INFO Injector:96 
2024-11-12T17:54:51,316  INFO Injector:85 org.matsim.core.controler.ControlerI 
2024-11-12T17:54:51,316  INFO Injector:86   --> provider: FactoryProxy{key=Key[type=org.matsim.core.controler.ControlerI, annotation=[none]], provider=com.google.inject.internal.ConstructorBindingImpl$Factory@73e84a64}[Scopes.SINGLETON]
2024-11-12T17:54:51,316  INFO Injector:87   --> source: org.matsim.core.controler.NewControlerModule.install(NewControlerModule.java:30)
2024-11-12T17:54:51,316  INFO Injector:89   --> scope: eager singleton
2024-11-12T17:54:51,316  INFO Injector:92   --> target: Key[type=org.matsim.core.controler.NewControler, annotation=[none]]
2024-11-12T17:54:51,316  INFO Injector:94   ==full==> LinkedKeyBinding{key=Key[type=org.matsim.core.controler.ControlerI, annotation=[none]], source=org.matsim.core.controler.NewControlerModule.install(NewControlerModule.java:30), scope=eager singleton, target=Key[type=org.matsim.core.controler.NewControler, annotation=[none]]}
2024-11-12T17:54:51,316  INFO Injector:96 
2024-11-12T17:54:51,316  INFO Injector:85 org.matsim.core.controler.ControlerListenerManager 
2024-11-12T17:54:51,316  INFO Injector:86   --> provider: FactoryProxy{key=Key[type=org.matsim.core.controler.ControlerListenerManager, annotation=[none]], provider=com.google.inject.internal.ConstructorBindingImpl$Factory@9010fde[Scopes.SINGLETON]}
2024-11-12T17:54:51,316  INFO Injector:87   --> source: org.matsim.core.controler.NewControlerModule.install(NewControlerModule.java:32)
2024-11-12T17:54:51,316  INFO Injector:89   --> scope: Scopes.NO_SCOPE
2024-11-12T17:54:51,317  INFO Injector:92   --> target: Key[type=org.matsim.core.controler.ControlerListenerManagerImpl, annotation=[none]]
2024-11-12T17:54:51,317  INFO Injector:94   ==full==> LinkedKeyBinding{key=Key[type=org.matsim.core.controler.ControlerListenerManager, annotation=[none]], source=org.matsim.core.controler.NewControlerModule.install(NewControlerModule.java:32), scope=Scopes.NO_SCOPE, target=Key[type=org.matsim.core.controler.ControlerListenerManagerImpl, annotation=[none]]}
2024-11-12T17:54:51,317  INFO Injector:96 
2024-11-12T17:54:51,317  INFO Injector:85 org.matsim.core.controler.TerminationCriterion 
2024-11-12T17:54:51,317  INFO Injector:86   --> provider: FactoryProxy{key=Key[type=org.matsim.core.controler.TerminationCriterion, annotation=[none]], provider=com.google.inject.internal.ConstructorBindingImpl$Factory@252a2ee4}
2024-11-12T17:54:51,317  INFO Injector:87   --> source: org.matsim.core.controler.NewControlerModule.install(NewControlerModule.java:36)
2024-11-12T17:54:51,317  INFO Injector:89   --> scope: Scopes.NO_SCOPE
2024-11-12T17:54:51,317  INFO Injector:92   --> target: Key[type=org.matsim.core.controler.TerminateAtFixedIterationNumber, annotation=[none]]
2024-11-12T17:54:51,317  INFO Injector:94   ==full==> LinkedKeyBinding{key=Key[type=org.matsim.core.controler.TerminationCriterion, annotation=[none]], source=org.matsim.core.controler.NewControlerModule.install(NewControlerModule.java:36), scope=Scopes.NO_SCOPE, target=Key[type=org.matsim.core.controler.TerminateAtFixedIterationNumber, annotation=[none]]}
2024-11-12T17:54:51,317  INFO Injector:96 
2024-11-12T17:54:51,317  INFO Injector:85 org.matsim.core.controler.MatsimServices 
2024-11-12T17:54:51,317  INFO Injector:86   --> provider: FactoryProxy{key=Key[type=org.matsim.core.controler.MatsimServices, annotation=[none]], provider=com.google.inject.internal.ConstructorBindingImpl$Factory@709009d}
2024-11-12T17:54:51,317  INFO Injector:87   --> source: org.matsim.core.controler.NewControlerModule.install(NewControlerModule.java:37)
2024-11-12T17:54:51,317  INFO Injector:89   --> scope: Scopes.NO_SCOPE
2024-11-12T17:54:51,317  INFO Injector:92   --> target: Key[type=org.matsim.core.controler.MatsimServicesImpl, annotation=[none]]
2024-11-12T17:54:51,317  INFO Injector:94   ==full==> LinkedKeyBinding{key=Key[type=org.matsim.core.controler.MatsimServices, annotation=[none]], source=org.matsim.core.controler.NewControlerModule.install(NewControlerModule.java:37), scope=Scopes.NO_SCOPE, target=Key[type=org.matsim.core.controler.MatsimServicesImpl, annotation=[none]]}
2024-11-12T17:54:51,317  INFO Injector:96 
2024-11-12T17:54:51,317  INFO Injector:85 org.matsim.core.controler.IterationCounter 
2024-11-12T17:54:51,317  INFO Injector:86   --> provider: FactoryProxy{key=Key[type=org.matsim.core.controler.IterationCounter, annotation=[none]], provider=com.google.inject.internal.ConstructorBindingImpl$Factory@709009d}
2024-11-12T17:54:51,317  INFO Injector:87   --> source: org.matsim.core.controler.NewControlerModule.install(NewControlerModule.java:39)
2024-11-12T17:54:51,317  INFO Injector:89   --> scope: Scopes.NO_SCOPE
2024-11-12T17:54:51,318  INFO Injector:92   --> target: Key[type=org.matsim.core.controler.MatsimServicesImpl, annotation=[none]]
2024-11-12T17:54:51,318  INFO Injector:94   ==full==> LinkedKeyBinding{key=Key[type=org.matsim.core.controler.IterationCounter, annotation=[none]], source=org.matsim.core.controler.NewControlerModule.install(NewControlerModule.java:39), scope=Scopes.NO_SCOPE, target=Key[type=org.matsim.core.controler.MatsimServicesImpl, annotation=[none]]}
2024-11-12T17:54:51,318  INFO Injector:96 
2024-11-12T17:54:51,318  INFO Injector:85 org.matsim.core.controler.PrepareForSim 
2024-11-12T17:54:51,318  INFO Injector:86   --> provider: FactoryProxy{key=Key[type=org.matsim.core.controler.PrepareForSim, annotation=[none]], provider=com.google.inject.internal.ConstructorBindingImpl$Factory@3683d172}
2024-11-12T17:54:51,318  INFO Injector:87   --> source: org.matsim.core.controler.NewControlerModule.install(NewControlerModule.java:43)
2024-11-12T17:54:51,318  INFO Injector:89   --> scope: Scopes.NO_SCOPE
2024-11-12T17:54:51,318  INFO Injector:92   --> target: Key[type=org.matsim.core.controler.PrepareForSimImpl, annotation=[none]]
2024-11-12T17:54:51,318  INFO Injector:94   ==full==> LinkedKeyBinding{key=Key[type=org.matsim.core.controler.PrepareForSim, annotation=[none]], source=org.matsim.core.controler.NewControlerModule.install(NewControlerModule.java:43), scope=Scopes.NO_SCOPE, target=Key[type=org.matsim.core.controler.PrepareForSimImpl, annotation=[none]]}
2024-11-12T17:54:51,318  INFO Injector:96 
2024-11-12T17:54:51,318  INFO Injector:85 org.matsim.core.controler.PrepareForMobsim 
2024-11-12T17:54:51,318  INFO Injector:86   --> provider: FactoryProxy{key=Key[type=org.matsim.core.controler.PrepareForMobsim, annotation=[none]], provider=com.google.inject.internal.ConstructorBindingImpl$Factory@37fd5783}
2024-11-12T17:54:51,318  INFO Injector:87   --> source: org.matsim.core.controler.NewControlerModule.install(NewControlerModule.java:44)
2024-11-12T17:54:51,318  INFO Injector:89   --> scope: Scopes.NO_SCOPE
2024-11-12T17:54:51,318  INFO Injector:92   --> target: Key[type=org.matsim.core.controler.PrepareForMobsimImpl, annotation=[none]]
2024-11-12T17:54:51,318  INFO Injector:94   ==full==> LinkedKeyBinding{key=Key[type=org.matsim.core.controler.PrepareForMobsim, annotation=[none]], source=org.matsim.core.controler.NewControlerModule.install(NewControlerModule.java:44), scope=Scopes.NO_SCOPE, target=Key[type=org.matsim.core.controler.PrepareForMobsimImpl, annotation=[none]]}
2024-11-12T17:54:51,318  INFO Injector:96 
2024-11-12T17:54:51,318  INFO Injector:85 org.matsim.core.controler.corelisteners.PlansScoring 
2024-11-12T17:54:51,318  INFO Injector:86   --> provider: FactoryProxy{key=Key[type=org.matsim.core.controler.corelisteners.PlansScoring, annotation=[none]], provider=com.google.inject.internal.ConstructorBindingImpl$Factory@43d40296[Scopes.SINGLETON]}
2024-11-12T17:54:51,318  INFO Injector:87   --> source: org.matsim.core.scoring.PlansScoringModule.install(PlansScoringModule.java:33)
2024-11-12T17:54:51,318  INFO Injector:89   --> scope: Scopes.NO_SCOPE
2024-11-12T17:54:51,318  INFO Injector:92   --> target: Key[type=org.matsim.core.scoring.PlansScoringImpl, annotation=[none]]
2024-11-12T17:54:51,318  INFO Injector:94   ==full==> LinkedKeyBinding{key=Key[type=org.matsim.core.controler.corelisteners.PlansScoring, annotation=[none]], source=org.matsim.core.scoring.PlansScoringModule.install(PlansScoringModule.java:33), scope=Scopes.NO_SCOPE, target=Key[type=org.matsim.core.scoring.PlansScoringImpl, annotation=[none]]}
2024-11-12T17:54:51,319  INFO Injector:96 
2024-11-12T17:54:51,319  INFO Injector:85 org.matsim.core.scoring.ExperiencedPlansService 
2024-11-12T17:54:51,319  INFO Injector:86   --> provider: FactoryProxy{key=Key[type=org.matsim.core.scoring.ExperiencedPlansService, annotation=[none]], provider=com.google.inject.internal.ConstructorBindingImpl$Factory@c96ef99}[Scopes.SINGLETON]
2024-11-12T17:54:51,319  INFO Injector:87   --> source: org.matsim.core.scoring.PlansScoringModule.install(PlansScoringModule.java:34)
2024-11-12T17:54:51,319  INFO Injector:89   --> scope: eager singleton
2024-11-12T17:54:51,319  INFO Injector:92   --> target: Key[type=org.matsim.core.scoring.ExperiencedPlansServiceImpl, annotation=[none]]
2024-11-12T17:54:51,319  INFO Injector:94   ==full==> LinkedKeyBinding{key=Key[type=org.matsim.core.scoring.ExperiencedPlansService, annotation=[none]], source=org.matsim.core.scoring.PlansScoringModule.install(PlansScoringModule.java:34), scope=eager singleton, target=Key[type=org.matsim.core.scoring.ExperiencedPlansServiceImpl, annotation=[none]]}
2024-11-12T17:54:51,319  INFO Injector:96 
2024-11-12T17:54:51,319  INFO Injector:85 org.matsim.core.scoring.NewScoreAssigner 
2024-11-12T17:54:51,319  INFO Injector:86   --> provider: FactoryProxy{key=Key[type=org.matsim.core.scoring.NewScoreAssigner, annotation=[none]], provider=com.google.inject.internal.ConstructorBindingImpl$Factory@24b6a738}[Scopes.SINGLETON]
2024-11-12T17:54:51,319  INFO Injector:87   --> source: org.matsim.core.scoring.PlansScoringModule.install(PlansScoringModule.java:35)
2024-11-12T17:54:51,319  INFO Injector:89   --> scope: eager singleton
2024-11-12T17:54:51,319  INFO Injector:92   --> target: Key[type=org.matsim.core.scoring.NewScoreAssignerImpl, annotation=[none]]
2024-11-12T17:54:51,319  INFO Injector:94   ==full==> LinkedKeyBinding{key=Key[type=org.matsim.core.scoring.NewScoreAssigner, annotation=[none]], source=org.matsim.core.scoring.PlansScoringModule.install(PlansScoringModule.java:35), scope=eager singleton, target=Key[type=org.matsim.core.scoring.NewScoreAssignerImpl, annotation=[none]]}
2024-11-12T17:54:51,319  INFO Injector:96 
2024-11-12T17:54:51,319  INFO Injector:85 org.matsim.core.controler.corelisteners.PlansReplanning 
2024-11-12T17:54:51,319  INFO Injector:86   --> provider: FactoryProxy{key=Key[type=org.matsim.core.controler.corelisteners.PlansReplanning, annotation=[none]], provider=com.google.inject.internal.ConstructorBindingImpl$Factory@792aad62[Scopes.SINGLETON]}
2024-11-12T17:54:51,319  INFO Injector:87   --> source: org.matsim.core.controler.corelisteners.ControlerDefaultCoreListenersModule.install(ControlerDefaultCoreListenersModule.java:38)
2024-11-12T17:54:51,319  INFO Injector:89   --> scope: Scopes.NO_SCOPE
2024-11-12T17:54:51,319  INFO Injector:92   --> target: Key[type=org.matsim.core.controler.corelisteners.PlansReplanningImpl, annotation=[none]]
2024-11-12T17:54:51,319  INFO Injector:94   ==full==> LinkedKeyBinding{key=Key[type=org.matsim.core.controler.corelisteners.PlansReplanning, annotation=[none]], source=org.matsim.core.controler.corelisteners.ControlerDefaultCoreListenersModule.install(ControlerDefaultCoreListenersModule.java:38), scope=Scopes.NO_SCOPE, target=Key[type=org.matsim.core.controler.corelisteners.PlansReplanningImpl, annotation=[none]]}
2024-11-12T17:54:51,319  INFO Injector:96 
2024-11-12T17:54:51,319  INFO Injector:85 org.matsim.core.controler.corelisteners.PlansDumping 
2024-11-12T17:54:51,319  INFO Injector:86   --> provider: FactoryProxy{key=Key[type=org.matsim.core.controler.corelisteners.PlansDumping, annotation=[none]], provider=com.google.inject.internal.ConstructorBindingImpl$Factory@1a09c063[Scopes.SINGLETON]}
2024-11-12T17:54:51,319  INFO Injector:87   --> source: org.matsim.core.controler.corelisteners.ControlerDefaultCoreListenersModule.install(ControlerDefaultCoreListenersModule.java:39)
2024-11-12T17:54:51,319  INFO Injector:89   --> scope: Scopes.NO_SCOPE
2024-11-12T17:54:51,319  INFO Injector:92   --> target: Key[type=org.matsim.core.controler.corelisteners.PlansDumpingImpl, annotation=[none]]
2024-11-12T17:54:51,320  INFO Injector:94   ==full==> LinkedKeyBinding{key=Key[type=org.matsim.core.controler.corelisteners.PlansDumping, annotation=[none]], source=org.matsim.core.controler.corelisteners.ControlerDefaultCoreListenersModule.install(ControlerDefaultCoreListenersModule.java:39), scope=Scopes.NO_SCOPE, target=Key[type=org.matsim.core.controler.corelisteners.PlansDumpingImpl, annotation=[none]]}
2024-11-12T17:54:51,320  INFO Injector:96 
2024-11-12T17:54:51,320  INFO Injector:85 org.matsim.core.controler.corelisteners.EventsHandling 
2024-11-12T17:54:51,320  INFO Injector:86   --> provider: FactoryProxy{key=Key[type=org.matsim.core.controler.corelisteners.EventsHandling, annotation=[none]], provider=com.google.inject.internal.ConstructorBindingImpl$Factory@21580e9c[Scopes.SINGLETON]}
2024-11-12T17:54:51,320  INFO Injector:87   --> source: org.matsim.core.controler.corelisteners.ControlerDefaultCoreListenersModule.install(ControlerDefaultCoreListenersModule.java:40)
2024-11-12T17:54:51,320  INFO Injector:89   --> scope: Scopes.NO_SCOPE
2024-11-12T17:54:51,320  INFO Injector:92   --> target: Key[type=org.matsim.core.controler.corelisteners.EventsHandlingImpl, annotation=[none]]
2024-11-12T17:54:51,320  INFO Injector:94   ==full==> LinkedKeyBinding{key=Key[type=org.matsim.core.controler.corelisteners.EventsHandling, annotation=[none]], source=org.matsim.core.controler.corelisteners.ControlerDefaultCoreListenersModule.install(ControlerDefaultCoreListenersModule.java:40), scope=Scopes.NO_SCOPE, target=Key[type=org.matsim.core.controler.corelisteners.EventsHandlingImpl, annotation=[none]]}
2024-11-12T17:54:51,320  INFO Injector:96 
2024-11-12T17:54:51,320  INFO Injector:85 org.matsim.core.controler.corelisteners.DumpDataAtEnd 
2024-11-12T17:54:51,320  INFO Injector:86   --> provider: FactoryProxy{key=Key[type=org.matsim.core.controler.corelisteners.DumpDataAtEnd, annotation=[none]], provider=com.google.inject.internal.ConstructorBindingImpl$Factory@3046f2e8[Scopes.SINGLETON]}
2024-11-12T17:54:51,320  INFO Injector:87   --> source: org.matsim.core.controler.corelisteners.ControlerDefaultCoreListenersModule.install(ControlerDefaultCoreListenersModule.java:41)
2024-11-12T17:54:51,320  INFO Injector:89   --> scope: Scopes.NO_SCOPE
2024-11-12T17:54:51,320  INFO Injector:92   --> target: Key[type=org.matsim.core.controler.corelisteners.DumpDataAtEndImpl, annotation=[none]]
2024-11-12T17:54:51,320  INFO Injector:94   ==full==> LinkedKeyBinding{key=Key[type=org.matsim.core.controler.corelisteners.DumpDataAtEnd, annotation=[none]], source=org.matsim.core.controler.corelisteners.ControlerDefaultCoreListenersModule.install(ControlerDefaultCoreListenersModule.java:41), scope=Scopes.NO_SCOPE, target=Key[type=org.matsim.core.controler.corelisteners.DumpDataAtEndImpl, annotation=[none]]}
2024-11-12T17:54:51,320  INFO Injector:96 
2024-11-12T17:54:51,320  INFO Injector:85 org.matsim.core.api.experimental.events.EventsManager 
2024-11-12T17:54:51,320  INFO Injector:86   --> provider: FactoryProxy{key=Key[type=org.matsim.core.api.experimental.events.EventsManager, annotation=[none]], provider=com.google.inject.internal.ConstructorBindingImpl$Factory@1cab083f}[Scopes.SINGLETON]
2024-11-12T17:54:51,320  INFO Injector:87   --> source: org.matsim.core.events.EventsManagerModule.install(EventsManagerModule.java:46)
2024-11-12T17:54:51,320  INFO Injector:89   --> scope: Scopes.SINGLETON
2024-11-12T17:54:51,320  INFO Injector:92   --> target: Key[type=org.matsim.core.events.SimStepParallelEventsManagerImpl, annotation=[none]]
2024-11-12T17:54:51,320  INFO Injector:94   ==full==> LinkedKeyBinding{key=Key[type=org.matsim.core.api.experimental.events.EventsManager, annotation=[none]], source=org.matsim.core.events.EventsManagerModule.install(EventsManagerModule.java:46), scope=Scopes.SINGLETON, target=Key[type=org.matsim.core.events.SimStepParallelEventsManagerImpl, annotation=[none]]}
2024-11-12T17:54:51,320  INFO Injector:96 
2024-11-12T17:54:51,320  INFO Injector:85 org.matsim.core.mobsim.qsim.components.QSimComponentsConfig 
2024-11-12T17:54:51,321  INFO Injector:86   --> provider: @Provides org.matsim.core.mobsim.qsim.components.QSimComponentsModule.provideDefaultQSimComponentsConfig(QSimComponentsModule.java:34)[Scopes.SINGLETON]
2024-11-12T17:54:51,321  INFO Injector:87   --> source: public org.matsim.core.mobsim.qsim.components.QSimComponentsConfig org.matsim.core.mobsim.qsim.components.QSimComponentsModule.provideDefaultQSimComponentsConfig(org.matsim.core.config.Config)
2024-11-12T17:54:51,321  INFO Injector:89   --> scope: Scopes.SINGLETON
2024-11-12T17:54:51,321  INFO Injector:94   ==full==> ProviderInstanceBinding{key=Key[type=org.matsim.core.mobsim.qsim.components.QSimComponentsConfig, annotation=[none]], source=public org.matsim.core.mobsim.qsim.components.QSimComponentsConfig org.matsim.core.mobsim.qsim.components.QSimComponentsModule.provideDefaultQSimComponentsConfig(org.matsim.core.config.Config), scope=Scopes.SINGLETON, provider=@Provides org.matsim.core.mobsim.qsim.components.QSimComponentsModule.provideDefaultQSimComponentsConfig(QSimComponentsModule.java:34)}
2024-11-12T17:54:51,321  INFO Injector:96 
2024-11-12T17:54:51,321  INFO Injector:85 org.matsim.core.mobsim.qsim.AbstractQSimModule @com.google.inject.internal.Element(setName=,uniqueId=107, type=MULTIBINDER, keyType=)
2024-11-12T17:54:51,321  INFO Injector:86   --> provider: ConstantFactory{value=org.matsim.core.mobsim.qsim.messagequeueengine.MessageQueueModule@77f2e0c6}[Scopes.SINGLETON]
2024-11-12T17:54:51,321  INFO Injector:87   --> source: java.base/java.util.Arrays$ArrayList.forEach(Arrays.java:4305)
2024-11-12T17:54:51,321  INFO Injector:89   --> scope: eager singleton
2024-11-12T17:54:51,321  INFO Injector:94   ==full==> InstanceBinding{key=Key[type=org.matsim.core.mobsim.qsim.AbstractQSimModule, annotation=@com.google.inject.internal.Element(setName=,uniqueId=107, type=MULTIBINDER, keyType=)], source=java.base/java.util.Arrays$ArrayList.forEach(Arrays.java:4305), instance=org.matsim.core.mobsim.qsim.messagequeueengine.MessageQueueModule@77f2e0c6}
2024-11-12T17:54:51,321  INFO Injector:96 
2024-11-12T17:54:51,321  INFO Injector:85 org.matsim.core.mobsim.qsim.AbstractQSimModule @com.google.inject.internal.Element(setName=,uniqueId=108, type=MULTIBINDER, keyType=)
2024-11-12T17:54:51,322  INFO Injector:86   --> provider: ConstantFactory{value=org.matsim.core.mobsim.qsim.ActivityEngineModule@25eb5ec2}[Scopes.SINGLETON]
2024-11-12T17:54:51,322  INFO Injector:87   --> source: java.base/java.util.Arrays$ArrayList.forEach(Arrays.java:4305)
2024-11-12T17:54:51,322  INFO Injector:89   --> scope: eager singleton
2024-11-12T17:54:51,322  INFO Injector:94   ==full==> InstanceBinding{key=Key[type=org.matsim.core.mobsim.qsim.AbstractQSimModule, annotation=@com.google.inject.internal.Element(setName=,uniqueId=108, type=MULTIBINDER, keyType=)], source=java.base/java.util.Arrays$ArrayList.forEach(Arrays.java:4305), instance=org.matsim.core.mobsim.qsim.ActivityEngineModule@25eb5ec2}
2024-11-12T17:54:51,322  INFO Injector:96 
2024-11-12T17:54:51,322  INFO Injector:85 org.matsim.core.mobsim.qsim.AbstractQSimModule @com.google.inject.internal.Element(setName=,uniqueId=109, type=MULTIBINDER, keyType=)
2024-11-12T17:54:51,322  INFO Injector:86   --> provider: ConstantFactory{value=org.matsim.core.mobsim.qsim.qnetsimengine.QNetsimEngineModule@5e8c9c48}[Scopes.SINGLETON]
2024-11-12T17:54:51,322  INFO Injector:87   --> source: java.base/java.util.Arrays$ArrayList.forEach(Arrays.java:4305)
2024-11-12T17:54:51,322  INFO Injector:89   --> scope: eager singleton
2024-11-12T17:54:51,322  INFO Injector:94   ==full==> InstanceBinding{key=Key[type=org.matsim.core.mobsim.qsim.AbstractQSimModule, annotation=@com.google.inject.internal.Element(setName=,uniqueId=109, type=MULTIBINDER, keyType=)], source=java.base/java.util.Arrays$ArrayList.forEach(Arrays.java:4305), instance=org.matsim.core.mobsim.qsim.qnetsimengine.QNetsimEngineModule@5e8c9c48}
2024-11-12T17:54:51,322  INFO Injector:96 
2024-11-12T17:54:51,322  INFO Injector:85 org.matsim.core.mobsim.qsim.AbstractQSimModule @com.google.inject.internal.Element(setName=,uniqueId=110, type=MULTIBINDER, keyType=)
2024-11-12T17:54:51,322  INFO Injector:86   --> provider: ConstantFactory{value=org.matsim.core.mobsim.qsim.TeleportationModule@49ee161d}[Scopes.SINGLETON]
2024-11-12T17:54:51,322  INFO Injector:87   --> source: java.base/java.util.Arrays$ArrayList.forEach(Arrays.java:4305)
2024-11-12T17:54:51,322  INFO Injector:89   --> scope: eager singleton
2024-11-12T17:54:51,323  INFO Injector:94   ==full==> InstanceBinding{key=Key[type=org.matsim.core.mobsim.qsim.AbstractQSimModule, annotation=@com.google.inject.internal.Element(setName=,uniqueId=110, type=MULTIBINDER, keyType=)], source=java.base/java.util.Arrays$ArrayList.forEach(Arrays.java:4305), instance=org.matsim.core.mobsim.qsim.TeleportationModule@49ee161d}
2024-11-12T17:54:51,323  INFO Injector:96 
2024-11-12T17:54:51,323  INFO Injector:85 org.matsim.core.mobsim.qsim.AbstractQSimModule @com.google.inject.internal.Element(setName=,uniqueId=111, type=MULTIBINDER, keyType=)
2024-11-12T17:54:51,323  INFO Injector:86   --> provider: ConstantFactory{value=org.matsim.core.mobsim.qsim.PopulationModule@29fa3b36}[Scopes.SINGLETON]
2024-11-12T17:54:51,323  INFO Injector:87   --> source: java.base/java.util.Arrays$ArrayList.forEach(Arrays.java:4305)
2024-11-12T17:54:51,323  INFO Injector:89   --> scope: eager singleton
2024-11-12T17:54:51,323  INFO Injector:94   ==full==> InstanceBinding{key=Key[type=org.matsim.core.mobsim.qsim.AbstractQSimModule, annotation=@com.google.inject.internal.Element(setName=,uniqueId=111, type=MULTIBINDER, keyType=)], source=java.base/java.util.Arrays$ArrayList.forEach(Arrays.java:4305), instance=org.matsim.core.mobsim.qsim.PopulationModule@29fa3b36}
2024-11-12T17:54:51,323  INFO Injector:96 
2024-11-12T17:54:51,323  INFO Injector:85 org.matsim.core.mobsim.qsim.AbstractQSimModule @com.google.inject.internal.Element(setName=,uniqueId=112, type=MULTIBINDER, keyType=)
2024-11-12T17:54:51,323  INFO Injector:86   --> provider: ConstantFactory{value=org.matsim.core.mobsim.qsim.changeeventsengine.NetworkChangeEventsModule@56987d85}[Scopes.SINGLETON]
2024-11-12T17:54:51,323  INFO Injector:87   --> source: java.base/java.util.Arrays$ArrayList.forEach(Arrays.java:4305)
2024-11-12T17:54:51,323  INFO Injector:89   --> scope: eager singleton
2024-11-12T17:54:51,323  INFO Injector:94   ==full==> InstanceBinding{key=Key[type=org.matsim.core.mobsim.qsim.AbstractQSimModule, annotation=@com.google.inject.internal.Element(setName=,uniqueId=112, type=MULTIBINDER, keyType=)], source=java.base/java.util.Arrays$ArrayList.forEach(Arrays.java:4305), instance=org.matsim.core.mobsim.qsim.changeeventsengine.NetworkChangeEventsModule@56987d85}
2024-11-12T17:54:51,323  INFO Injector:96 
2024-11-12T17:54:51,323  INFO Injector:85 org.matsim.core.mobsim.qsim.AbstractQSimModule @com.google.inject.internal.Element(setName=,uniqueId=113, type=MULTIBINDER, keyType=)
2024-11-12T17:54:51,323  INFO Injector:86   --> provider: ConstantFactory{value=org.matsim.core.mobsim.qsim.pt.TransitEngineModule@6cccd5c2}[Scopes.SINGLETON]
2024-11-12T17:54:51,323  INFO Injector:87   --> source: java.base/java.util.Arrays$ArrayList.forEach(Arrays.java:4305)
2024-11-12T17:54:51,323  INFO Injector:89   --> scope: eager singleton
2024-11-12T17:54:51,323  INFO Injector:94   ==full==> InstanceBinding{key=Key[type=org.matsim.core.mobsim.qsim.AbstractQSimModule, annotation=@com.google.inject.internal.Element(setName=,uniqueId=113, type=MULTIBINDER, keyType=)], source=java.base/java.util.Arrays$ArrayList.forEach(Arrays.java:4305), instance=org.matsim.core.mobsim.qsim.pt.TransitEngineModule@6cccd5c2}
2024-11-12T17:54:51,323  INFO Injector:96 
2024-11-12T17:54:51,323  INFO Injector:85 org.matsim.core.mobsim.framework.Mobsim 
2024-11-12T17:54:51,323  INFO Injector:86   --> provider: Key[type=org.matsim.core.mobsim.qsim.QSimProvider, annotation=[none]]
2024-11-12T17:54:51,323  INFO Injector:87   --> source: org.matsim.core.mobsim.qsim.QSimModule.install(QSimModule.java:100)
2024-11-12T17:54:51,324  INFO Injector:89   --> scope: Scopes.NO_SCOPE
2024-11-12T17:54:51,324  INFO Injector:94   ==full==> ProviderKeyBinding{key=Key[type=org.matsim.core.mobsim.framework.Mobsim, annotation=[none]], source=org.matsim.core.mobsim.qsim.QSimModule.install(QSimModule.java:100), scope=Scopes.NO_SCOPE, provider=Key[type=org.matsim.core.mobsim.qsim.QSimProvider, annotation=[none]]}
2024-11-12T17:54:51,324  INFO Injector:96 
2024-11-12T17:54:51,324  INFO Injector:85 org.matsim.core.controler.listener.ControlerListener @com.google.inject.internal.Element(setName=,uniqueId=114, type=MULTIBINDER, keyType=)
2024-11-12T17:54:51,324  INFO Injector:86   --> provider: FactoryProxy{key=Key[type=org.matsim.core.controler.listener.ControlerListener, annotation=@com.google.inject.internal.Element(setName=,uniqueId=114, type=MULTIBINDER, keyType=)], provider=com.google.inject.internal.ConstructorBindingImpl$Factory@2e6e6410[Scopes.SINGLETON]}
2024-11-12T17:54:51,324  INFO Injector:87   --> source: org.matsim.core.events.MobsimScopeEventHandlingModule.install(MobsimScopeEventHandlingModule.java:39)
2024-11-12T17:54:51,324  INFO Injector:89   --> scope: Scopes.NO_SCOPE
2024-11-12T17:54:51,324  INFO Injector:92   --> target: Key[type=org.matsim.core.events.MobsimScopeEventHandling, annotation=[none]]
2024-11-12T17:54:51,324  INFO Injector:94   ==full==> LinkedKeyBinding{key=Key[type=org.matsim.core.controler.listener.ControlerListener, annotation=@com.google.inject.internal.Element(setName=,uniqueId=114, type=MULTIBINDER, keyType=)], source=org.matsim.core.events.MobsimScopeEventHandlingModule.install(MobsimScopeEventHandlingModule.java:39), scope=Scopes.NO_SCOPE, target=Key[type=org.matsim.core.events.MobsimScopeEventHandling, annotation=[none]]}
2024-11-12T17:54:51,324  INFO Injector:96 
2024-11-12T17:54:51,324  INFO Injector:85 org.matsim.core.mobsim.qsim.AbstractQSimModule @com.google.inject.internal.Element(setName=,uniqueId=115, type=MULTIBINDER, keyType=)
2024-11-12T17:54:51,324  INFO Injector:86   --> provider: ConstantFactory{value=org.matsim.core.events.MobsimScopeEventHandlingModule$1@55ab68b8}[Scopes.SINGLETON]
[...]
2024-11-12T17:57:04,113  INFO EventsManagerImpl:144   org.matsim.contrib.ev.charging.QueuedAtChargerEventHandler
2024-11-12T17:57:04,113  INFO EventsManagerImpl:205     > org.matsim.contrib.ev.charging.QueuedAtChargerEvent
2024-11-12T17:57:04,113  INFO EventsManagerImpl:144   org.matsim.contrib.ev.charging.ChargingStartEventHandler
2024-11-12T17:57:04,113  INFO EventsManagerImpl:205     > org.matsim.contrib.ev.charging.ChargingStartEvent
2024-11-12T17:57:04,113  INFO EventsManagerImpl:144   org.matsim.contrib.ev.charging.ChargingEndEventHandler
2024-11-12T17:57:04,113  INFO EventsManagerImpl:205     > org.matsim.contrib.ev.charging.ChargingEndEvent
2024-11-12T17:57:04,113  INFO EventsManagerImpl:144   org.matsim.contrib.ev.charging.QuitQueueAtChargerEventHandler
2024-11-12T17:57:04,114  INFO EventsManagerImpl:205     > org.matsim.contrib.ev.charging.QuitQueueAtChargerEvent
2024-11-12T17:57:04,114  INFO EventsManagerImpl:144   org.matsim.core.events.MobsimScopeEventHandler
2024-11-12T17:57:04,114  INFO EventsManagerImpl:154 
2024-11-12T17:57:04,114  INFO EventsManagerImpl:138 adding Event-Handler: org.matsim.contrib.ev.charging.VehicleChargingHandler
2024-11-12T17:57:04,114  INFO EventsManagerImpl:144   org.matsim.api.core.v01.events.handler.ActivityStartEventHandler
2024-11-12T17:57:04,114  INFO EventsManagerImpl:205     > org.matsim.api.core.v01.events.ActivityStartEvent
2024-11-12T17:57:04,114  INFO EventsManagerImpl:144   org.matsim.api.core.v01.events.handler.ActivityEndEventHandler
2024-11-12T17:57:04,114  INFO EventsManagerImpl:205     > org.matsim.api.core.v01.events.ActivityEndEvent
2024-11-12T17:57:04,114  INFO EventsManagerImpl:144   org.matsim.api.core.v01.events.handler.PersonLeavesVehicleEventHandler
2024-11-12T17:57:04,114  INFO EventsManagerImpl:205     > org.matsim.api.core.v01.events.PersonLeavesVehicleEvent
2024-11-12T17:57:04,114  INFO EventsManagerImpl:144   org.matsim.contrib.ev.charging.QueuedAtChargerEventHandler
2024-11-12T17:57:04,114  INFO EventsManagerImpl:205     > org.matsim.contrib.ev.charging.QueuedAtChargerEvent
2024-11-12T17:57:04,114  INFO EventsManagerImpl:144   org.matsim.contrib.ev.charging.ChargingStartEventHandler
2024-11-12T17:57:04,114  INFO EventsManagerImpl:205     > org.matsim.contrib.ev.charging.ChargingStartEvent
2024-11-12T17:57:04,114  INFO EventsManagerImpl:144   org.matsim.contrib.ev.charging.ChargingEndEventHandler
2024-11-12T17:57:04,114  INFO EventsManagerImpl:205     > org.matsim.contrib.ev.charging.ChargingEndEvent
2024-11-12T17:57:04,114  INFO EventsManagerImpl:144   org.matsim.contrib.ev.charging.QuitQueueAtChargerEventHandler
2024-11-12T17:57:04,114  INFO EventsManagerImpl:205     > org.matsim.contrib.ev.charging.QuitQueueAtChargerEvent
2024-11-12T17:57:04,114  INFO EventsManagerImpl:144   org.matsim.core.events.MobsimScopeEventHandler
2024-11-12T17:57:04,114  INFO EventsManagerImpl:154 
2024-11-12T17:57:04,115  INFO QSimProvider:131 Added MobsimEngine class org.matsim.core.mobsim.qsim.ActivityEngineDefaultImpl
2024-11-12T17:57:04,115  INFO QSimProvider:137 Added Activityhandler class org.matsim.core.mobsim.qsim.ActivityEngineDefaultImpl
2024-11-12T17:57:04,208  INFO QSimProvider:143 Added DepartureHandler class org.matsim.core.mobsim.qsim.qnetsimengine.VehicularDepartureHandler
2024-11-12T17:57:04,208  INFO QSimProvider:131 Added MobsimEngine class org.matsim.core.mobsim.qsim.qnetsimengine.QNetsimEngineWithThreadpool
2024-11-12T17:57:04,208  INFO QSimProvider:131 Added MobsimEngine class org.matsim.core.mobsim.qsim.DefaultTeleportationEngine
2024-11-12T17:57:04,208  INFO QSimProvider:143 Added DepartureHandler class org.matsim.core.mobsim.qsim.DefaultTeleportationEngine
2024-11-12T17:57:04,208  INFO QSimProvider:149 Added AgentSource class org.matsim.core.mobsim.qsim.agents.PopulationAgentSource
2024-11-12T17:57:04,208  INFO MobsimListenerManager:50 calling addQueueSimulationListener
2024-11-12T17:57:04,208  INFO MobsimListenerManager:54   assigned class org.matsim.core.mobsim.framework.listeners.MobsimListener to interface org.matsim.core.mobsim.framework.listeners.MobsimBeforeSimStepListener
2024-11-12T17:57:04,208  INFO MobsimListenerManager:54   assigned class org.matsim.core.mobsim.framework.listeners.MobsimListener to interface org.matsim.core.mobsim.qsim.messagequeueengine.MessageQueueEngine
2024-11-12T17:57:04,208  INFO MobsimListenerManager:54   assigned class org.matsim.core.mobsim.framework.listeners.MobsimListener to interface org.matsim.core.mobsim.framework.listeners.MobsimListener
2024-11-12T17:57:04,209  INFO QSimProvider:155 Added MobsimListener class org.matsim.core.mobsim.qsim.messagequeueengine.MessageQueueEngine
2024-11-12T17:57:04,209  INFO MobsimListenerManager:50 calling addQueueSimulationListener
2024-11-12T17:57:04,209  INFO MobsimListenerManager:54   assigned class org.matsim.core.mobsim.framework.listeners.MobsimListener to interface org.matsim.core.mobsim.framework.listeners.MobsimBeforeCleanupListener
2024-11-12T17:57:04,209  INFO MobsimListenerManager:54   assigned class org.matsim.core.mobsim.framework.listeners.MobsimListener to interface org.matsim.core.mobsim.framework.listeners.MobsimListener
2024-11-12T17:57:04,209  INFO MobsimListenerManager:54   assigned class org.matsim.core.mobsim.framework.listeners.MobsimListener to interface org.matsim.contrib.ev.fleet.ElectricFleetModule$2$2
2024-11-12T17:57:04,209  INFO QSimProvider:155 Added MobsimListener class org.matsim.contrib.ev.fleet.ElectricFleetModule$2$2
2024-11-12T17:57:04,209  INFO MobsimListenerManager:50 calling addQueueSimulationListener
2024-11-12T17:57:04,209  INFO MobsimListenerManager:54   assigned class org.matsim.core.mobsim.framework.listeners.MobsimListener to interface org.matsim.contrib.ev.charging.ChargingHandler
2024-11-12T17:57:04,209  INFO MobsimListenerManager:54   assigned class org.matsim.core.mobsim.framework.listeners.MobsimListener to interface org.matsim.core.mobsim.framework.listeners.MobsimAfterSimStepListener
2024-11-12T17:57:04,209  INFO MobsimListenerManager:54   assigned class org.matsim.core.mobsim.framework.listeners.MobsimListener to interface org.matsim.core.mobsim.framework.listeners.MobsimListener
2024-11-12T17:57:04,209  INFO QSimProvider:155 Added MobsimListener class org.matsim.contrib.ev.charging.ChargingHandler
2024-11-12T17:57:04,209  INFO QSimProvider:131 Added MobsimEngine class org.matsim.contrib.ev.discharging.DriveDischargingHandler
2024-11-12T17:57:04,209  INFO MobsimListenerManager:50 calling addQueueSimulationListener
2024-11-12T17:57:04,209  INFO MobsimListenerManager:54   assigned class org.matsim.core.mobsim.framework.listeners.MobsimListener to interface org.matsim.core.mobsim.framework.listeners.MobsimAfterSimStepListener
2024-11-12T17:57:04,209  INFO MobsimListenerManager:54   assigned class org.matsim.core.mobsim.framework.listeners.MobsimListener to interface org.matsim.contrib.ev.discharging.IdleDischargingHandler
2024-11-12T17:57:04,209  INFO MobsimListenerManager:54   assigned class org.matsim.core.mobsim.framework.listeners.MobsimListener to interface org.matsim.core.mobsim.framework.listeners.MobsimListener
2024-11-12T17:57:04,209  INFO QSimProvider:155 Added MobsimListener class org.matsim.contrib.ev.discharging.IdleDischargingHandler
2024-11-12T17:57:04,210  INFO MobsimListenerManager:50 calling addQueueSimulationListener
2024-11-12T17:57:04,210  INFO MobsimListenerManager:54   assigned class org.matsim.core.mobsim.framework.listeners.MobsimListener to interface org.matsim.core.mobsim.framework.listeners.MobsimBeforeCleanupListener
2024-11-12T17:57:04,210  INFO MobsimListenerManager:54   assigned class org.matsim.core.mobsim.framework.listeners.MobsimListener to interface org.matsim.core.mobsim.framework.listeners.MobsimBeforeSimStepListener
2024-11-12T17:57:04,210  INFO MobsimListenerManager:54   assigned class org.matsim.core.mobsim.framework.listeners.MobsimListener to interface org.matsim.contrib.common.timeprofile.TimeProfileCollector
2024-11-12T17:57:04,210  INFO MobsimListenerManager:54   assigned class org.matsim.core.mobsim.framework.listeners.MobsimListener to interface org.matsim.core.mobsim.framework.listeners.MobsimListener
2024-11-12T17:57:04,210  INFO QSimProvider:155 Added MobsimListener class org.matsim.contrib.common.timeprofile.TimeProfileCollector
2024-11-12T17:57:04,212  INFO MobsimListenerManager:50 calling addQueueSimulationListener
2024-11-12T17:57:04,212  INFO MobsimListenerManager:54   assigned class org.matsim.core.mobsim.framework.listeners.MobsimListener to interface org.matsim.core.mobsim.framework.listeners.MobsimBeforeCleanupListener
2024-11-12T17:57:04,212  INFO MobsimListenerManager:54   assigned class org.matsim.core.mobsim.framework.listeners.MobsimListener to interface org.matsim.core.mobsim.framework.listeners.MobsimBeforeSimStepListener
2024-11-12T17:57:04,212  INFO MobsimListenerManager:54   assigned class org.matsim.core.mobsim.framework.listeners.MobsimListener to interface org.matsim.contrib.common.timeprofile.TimeProfileCollector
2024-11-12T17:57:04,212  INFO MobsimListenerManager:54   assigned class org.matsim.core.mobsim.framework.listeners.MobsimListener to interface org.matsim.core.mobsim.framework.listeners.MobsimListener
2024-11-12T17:57:04,212  INFO QSimProvider:155 Added MobsimListener class org.matsim.contrib.common.timeprofile.TimeProfileCollector
2024-11-12T17:57:04,213  INFO MobsimListenerManager:50 calling addQueueSimulationListener
2024-11-12T17:57:04,213  INFO MobsimListenerManager:54   assigned class org.matsim.core.mobsim.framework.listeners.MobsimListener to interface org.matsim.core.mobsim.framework.listeners.MobsimBeforeCleanupListener
2024-11-12T17:57:04,213  INFO MobsimListenerManager:54   assigned class org.matsim.core.mobsim.framework.listeners.MobsimListener to interface org.matsim.core.mobsim.framework.listeners.MobsimBeforeSimStepListener
2024-11-12T17:57:04,213  INFO MobsimListenerManager:54   assigned class org.matsim.core.mobsim.framework.listeners.MobsimListener to interface org.matsim.contrib.common.timeprofile.TimeProfileCollector
2024-11-12T17:57:04,213  INFO MobsimListenerManager:54   assigned class org.matsim.core.mobsim.framework.listeners.MobsimListener to interface org.matsim.core.mobsim.framework.listeners.MobsimListener
2024-11-12T17:57:04,213  INFO QSimProvider:155 Added MobsimListener class org.matsim.contrib.common.timeprofile.TimeProfileCollector
2024-11-12T17:57:04,213  INFO MobsimListenerManager:50 calling addQueueSimulationListener
2024-11-12T17:57:04,213  INFO MobsimListenerManager:54   assigned class org.matsim.core.mobsim.framework.listeners.MobsimListener to interface org.matsim.core.mobsim.framework.listeners.MobsimInitializedListener
2024-11-12T17:57:04,213  INFO MobsimListenerManager:54   assigned class org.matsim.core.mobsim.framework.listeners.MobsimListener to interface org.matsim.contrib.ev.stats.ChargerOccupancyXYDataCollector
2024-11-12T17:57:04,213  INFO MobsimListenerManager:54   assigned class org.matsim.core.mobsim.framework.listeners.MobsimListener to interface org.matsim.core.mobsim.framework.listeners.MobsimBeforeCleanupListener
2024-11-12T17:57:04,213  INFO MobsimListenerManager:54   assigned class org.matsim.core.mobsim.framework.listeners.MobsimListener to interface org.matsim.core.mobsim.framework.listeners.MobsimBeforeSimStepListener
2024-11-12T17:57:04,213  INFO MobsimListenerManager:54   assigned class org.matsim.core.mobsim.framework.listeners.MobsimListener to interface org.matsim.core.mobsim.framework.listeners.MobsimListener
2024-11-12T17:57:04,213  INFO QSimProvider:155 Added MobsimListener class org.matsim.contrib.ev.stats.ChargerOccupancyXYDataCollector
2024-11-12T17:57:04,216  INFO MobsimListenerManager:50 calling addQueueSimulationListener
2024-11-12T17:57:04,216  INFO MobsimListenerManager:54   assigned class org.matsim.core.mobsim.framework.listeners.MobsimListener to interface org.matsim.core.mobsim.framework.listeners.MobsimBeforeCleanupListener
2024-11-12T17:57:04,216  INFO MobsimListenerManager:54   assigned class org.matsim.core.mobsim.framework.listeners.MobsimListener to interface org.matsim.core.mobsim.framework.listeners.MobsimBeforeSimStepListener
2024-11-12T17:57:04,217  INFO MobsimListenerManager:54   assigned class org.matsim.core.mobsim.framework.listeners.MobsimListener to interface org.matsim.contrib.common.timeprofile.TimeProfileCollector
2024-11-12T17:57:04,217  INFO MobsimListenerManager:54   assigned class org.matsim.core.mobsim.framework.listeners.MobsimListener to interface org.matsim.core.mobsim.framework.listeners.MobsimListener
2024-11-12T17:57:04,217  INFO QSimProvider:155 Added MobsimListener class org.matsim.contrib.common.timeprofile.TimeProfileCollector
2024-11-12T17:57:04,217  INFO MobsimListenerManager:50 calling addQueueSimulationListener
2024-11-12T17:57:04,217  INFO MobsimListenerManager:54   assigned class org.matsim.core.mobsim.framework.listeners.MobsimListener to interface org.matsim.core.mobsim.framework.listeners.MobsimBeforeCleanupListener
2024-11-12T17:57:04,217  INFO MobsimListenerManager:54   assigned class org.matsim.core.mobsim.framework.listeners.MobsimListener to interface org.matsim.contrib.ev.stats.EnergyConsumptionCollector
2024-11-12T17:57:04,217  INFO MobsimListenerManager:54   assigned class org.matsim.core.mobsim.framework.listeners.MobsimListener to interface org.matsim.core.mobsim.framework.listeners.MobsimListener
2024-11-12T17:57:04,217  INFO QSimProvider:155 Added MobsimListener class org.matsim.contrib.ev.stats.EnergyConsumptionCollector
2024-11-12T17:57:04,221  INFO PopulationUtils:1255 adding scenario element for allpersons container
2024-11-12T17:57:04,221  INFO PopulationImpl:107  person # 1
2024-11-12T17:57:04,221  INFO PopulationImpl:107  person # 4
2024-11-12T17:57:04,222  INFO PopulationImpl:107  person # 16
2024-11-12T17:57:04,222  INFO PopulationImpl:107  person # 64
2024-11-12T17:57:04,223  INFO PopulationImpl:107  person # 256
2024-11-12T17:57:04,226  INFO PopulationImpl:107  person # 1024
2024-11-12T17:57:04,230  INFO PopulationImpl:107  person # 4096
2024-11-12T17:57:04,240  INFO VehicleUtils:398 adding scenario element for allvehicles container
2024-11-12T17:57:04,240  INFO Counter:70 [VehiclesImpl] added vehicle # 1
2024-11-12T17:57:04,240  INFO Counter:70 [VehiclesImpl] added vehicle # 2
2024-11-12T17:57:04,240  INFO Counter:70 [VehiclesImpl] added vehicle # 4
2024-11-12T17:57:04,240  INFO Counter:70 [VehiclesImpl] added vehicle # 8
2024-11-12T17:57:04,240  INFO Counter:70 [VehiclesImpl] added vehicle # 16
2024-11-12T17:57:04,240  INFO Counter:70 [VehiclesImpl] added vehicle # 32
2024-11-12T17:57:04,241  INFO Counter:70 [VehiclesImpl] added vehicle # 64
2024-11-12T17:57:04,241  INFO Counter:70 [VehiclesImpl] added vehicle # 128
2024-11-12T17:57:04,242  INFO Counter:70 [VehiclesImpl] added vehicle # 256
2024-11-12T17:57:04,243  INFO Counter:70 [VehiclesImpl] added vehicle # 512
2024-11-12T17:57:04,246  INFO Counter:70 [VehiclesImpl] added vehicle # 1024
2024-11-12T17:57:04,248  INFO Counter:70 [VehiclesImpl] added vehicle # 2048
2024-11-12T17:57:04,254  INFO Counter:70 [VehiclesImpl] added vehicle # 4096
2024-11-12T17:57:04,264  INFO Counter:70 [VehiclesImpl] added vehicle # 8192
2024-11-12T17:57:04,301  INFO AbstractQNetsimEngine:426 Assigned 25170 nodes and 33848 links to QSimEngineRunner #0
2024-11-12T17:57:04,328  INFO EventsManagerImpl:115  event # 1
2024-11-12T17:57:04,331  INFO EventsManagerImpl:115  event # 4
2024-11-12T17:57:04,331  INFO EventsManagerImpl:115  event # 16
2024-11-12T17:57:04,333  INFO EventsManagerImpl:115  event # 64
2024-11-12T17:57:04,335  INFO AbstractQNetsimEngine:364 SIMULATION (QNetsimEngine) AT 00:00:00 : #links=0 #nodes=105
2024-11-12T17:57:04,337  INFO EventsManagerImpl:115  event # 256
2024-11-12T17:57:04,340  INFO QSim:566 SIMULATION (NEW QSim) AT 00:00:00 : #Veh=10294 lost=0 simT=0.0s realT=0s; (s/r): 0.0
2024-11-12T17:57:04,354  INFO EventsManagerImpl:115  event # 1024
2024-11-12T17:57:04,378  INFO EventsManagerImpl:115  event # 4096
2024-11-12T17:57:04,439 ERROR BasicPlanAgentImpl:187 last activity of person driver agent id 10240 has end time < infty; setting it to infty
2024-11-12T17:57:04,440 ERROR BasicPlanAgentImpl:188  This message given only once.
2024-11-12T17:57:04,462  INFO EventsManagerImpl:115  event # 16384
2024-11-12T17:57:04,707  INFO EventsManagerImpl:115  event # 65536
2024-11-12T17:57:05,446  INFO AbstractQNetsimEngine:364 SIMULATION (QNetsimEngine) AT 01:00:00 : #links=27 #nodes=86
2024-11-12T17:57:05,446  INFO QSim:566 SIMULATION (NEW QSim) AT 01:00:00 : #Veh=10240 lost=0 simT=3600.0s realT=1s; (s/r): 3600.0
2024-11-12T17:57:05,565  INFO EventsManagerImpl:115  event # 262144
2024-11-12T17:57:06,210  INFO AbstractQNetsimEngine:364 SIMULATION (QNetsimEngine) AT 02:00:00 : #links=21 #nodes=56
2024-11-12T17:57:06,210  INFO QSim:566 SIMULATION (NEW QSim) AT 02:00:00 : #Veh=10169 lost=0 simT=7200.0s realT=2s; (s/r): 3600.0
2024-11-12T17:57:06,813  INFO AbstractQNetsimEngine:364 SIMULATION (QNetsimEngine) AT 03:00:00 : #links=14 #nodes=46
2024-11-12T17:57:06,814  INFO QSim:566 SIMULATION (NEW QSim) AT 03:00:00 : #Veh=10118 lost=0 simT=10800.0s realT=2s; (s/r): 5400.0
2024-11-12T17:57:07,380  INFO AbstractQNetsimEngine:364 SIMULATION (QNetsimEngine) AT 04:00:00 : #links=15 #nodes=51
2024-11-12T17:57:07,380  INFO QSim:566 SIMULATION (NEW QSim) AT 04:00:00 : #Veh=10079 lost=0 simT=14400.0s realT=3s; (s/r): 4800.0
2024-11-12T17:57:07,961  INFO AbstractQNetsimEngine:364 SIMULATION (QNetsimEngine) AT 05:00:00 : #links=17 #nodes=117
2024-11-12T17:57:07,961  INFO QSim:566 SIMULATION (NEW QSim) AT 05:00:00 : #Veh=10041 lost=0 simT=18000.0s realT=3s; (s/r): 6000.0
2024-11-12T17:57:08,771  INFO EventsManagerImpl:115  event # 1048576
2024-11-12T17:57:08,949  INFO AbstractQNetsimEngine:364 SIMULATION (QNetsimEngine) AT 06:00:00 : #links=30 #nodes=338
2024-11-12T17:57:08,949  INFO QSim:566 SIMULATION (NEW QSim) AT 06:00:00 : #Veh=9956 lost=0 simT=21600.0s realT=4s; (s/r): 5400.0
2024-11-12T17:57:11,072  INFO AbstractQNetsimEngine:364 SIMULATION (QNetsimEngine) AT 07:00:00 : #links=83 #nodes=704
2024-11-12T17:57:11,072  INFO QSim:566 SIMULATION (NEW QSim) AT 07:00:00 : #Veh=9737 lost=0 simT=25200.0s realT=6s; (s/r): 4200.0
2024-11-12T17:57:15,614  INFO AbstractQNetsimEngine:364 SIMULATION (QNetsimEngine) AT 08:00:00 : #links=181 #nodes=885
2024-11-12T17:57:15,614  INFO QSim:566 SIMULATION (NEW QSim) AT 08:00:00 : #Veh=9245 lost=0 simT=28800.0s realT=11s; (s/r): 2618.181818181818
2024-11-12T17:57:17,958  INFO EventsManagerImpl:115  event # 4194304
2024-11-12T17:57:21,353  INFO AbstractQNetsimEngine:364 SIMULATION (QNetsimEngine) AT 09:00:00 : #links=190 #nodes=811
2024-11-12T17:57:21,354  INFO QSim:566 SIMULATION (NEW QSim) AT 09:00:00 : #Veh=8560 lost=0 simT=32400.0s realT=17s; (s/r): 1905.8823529411766
2024-11-12T17:57:26,566  INFO AbstractQNetsimEngine:364 SIMULATION (QNetsimEngine) AT 10:00:00 : #links=212 #nodes=651
2024-11-12T17:57:26,566  INFO QSim:566 SIMULATION (NEW QSim) AT 10:00:00 : #Veh=7902 lost=0 simT=36000.0s realT=22s; (s/r): 1636.3636363636363
2024-11-12T17:57:31,290  INFO AbstractQNetsimEngine:364 SIMULATION (QNetsimEngine) AT 11:00:00 : #links=153 #nodes=651
2024-11-12T17:57:31,291  INFO QSim:566 SIMULATION (NEW QSim) AT 11:00:00 : #Veh=7282 lost=0 simT=39600.0s realT=27s; (s/r): 1466.6666666666667
2024-11-12T17:57:35,925  INFO AbstractQNetsimEngine:364 SIMULATION (QNetsimEngine) AT 12:00:00 : #links=175 #nodes=671
2024-11-12T17:57:35,925  INFO QSim:566 SIMULATION (NEW QSim) AT 12:00:00 : #Veh=6767 lost=0 simT=43200.0s realT=31s; (s/r): 1393.5483870967741
2024-11-12T17:57:40,627  INFO AbstractQNetsimEngine:364 SIMULATION (QNetsimEngine) AT 13:00:00 : #links=152 #nodes=678
2024-11-12T17:57:40,627  INFO QSim:566 SIMULATION (NEW QSim) AT 13:00:00 : #Veh=6201 lost=0 simT=46800.0s realT=36s; (s/r): 1300.0
