[INFO] Error stacktraces are turned on.
[INFO] Scanning for projects...
[INFO] 
[INFO] -----------------------< org.matsim.contrib:ev >------------------------
[INFO] Building ev 2025.0-SNAPSHOT
[INFO]   from pom.xml
[INFO] --------------------------------[ jar ]---------------------------------
[INFO] 
[INFO] --- exec-maven-plugin:3.0.0:java (default-cli) @ ev ---
2024-11-08T17:17:14,783  INFO RunEvExampleWithEvScoring:59 Starting simulation run with the following arguments:
2024-11-08T17:17:14,784  INFO RunEvExampleWithEvScoring:60 args=[./scenarios/utahev/utahevconfig.xml]
2024-11-08T17:17:14,797  INFO IOUtils:224 Resolved ./scenarios/utahev/utahevconfig.xml to ./scenarios/utahev/utahevconfig.xml
2024-11-08T17:17:14,800  INFO Config:550 setting context to [file:/home/isaacp/research/repos/EvMatsim/contribs/ev/]
2024-11-08T17:17:14,836  INFO Version:21 HV000001: Hibernate Validator 8.0.1.Final
2024-11-08T17:17:14,931  INFO MatsimXmlParser:170 starting to parse xml from url file:/home/isaacp/research/repos/EvMatsim/contribs/ev/./scenarios/utahev/utahevconfig.xml ...
2024-11-08T17:17:14,952  INFO ConfigReader:105 using config_v2-reader
2024-11-08T17:17:14,952  INFO MatsimXmlParser:296 Trying to load http://www.matsim.org/files/dtd/config_v2.dtd. In some cases (e.g. network interface up but no connection), this may take a bit.
2024-11-08T17:17:15,314  INFO Config:550 setting context to [file:/home/isaacp/research/repos/EvMatsim/contribs/ev/./scenarios/utahev/utahevconfig.xml]
2024-11-08T17:17:15,315  INFO CommandLine:511 Received 0 positional command line arguments:
2024-11-08T17:17:15,315  INFO CommandLine:512    
2024-11-08T17:17:15,316  INFO CommandLine:534 Received 0 command line options with 0 prefixes:
2024-11-08T17:17:15,329  INFO ScenarioLoaderImpl:135 loading network from file:/home/isaacp/research/repos/EvMatsim/contribs/ev/scenarios/utahev/utahevnetwork.xml
2024-11-08T17:17:15,330  INFO MatsimXmlParser:170 starting to parse xml from url file:/home/isaacp/research/repos/EvMatsim/contribs/ev/scenarios/utahev/utahevnetwork.xml ...
2024-11-08T17:17:15,393  INFO MatsimNetworkReader:122 using network_v2-reader.
2024-11-08T17:17:15,394  INFO MatsimXmlParser:296 Trying to load http://www.matsim.org/files/dtd/network_v2.dtd. In some cases (e.g. network interface up but no connection), this may take a bit.
2024-11-08T17:17:15,560  INFO NetworkImpl:165  node # 1
2024-11-08T17:17:15,561  INFO NetworkImpl:165  node # 4
2024-11-08T17:17:15,562  INFO NetworkImpl:165  node # 16
2024-11-08T17:17:15,566  INFO NetworkImpl:165  node # 64
2024-11-08T17:17:15,573  INFO NetworkImpl:165  node # 256
2024-11-08T17:17:15,582  INFO NetworkImpl:165  node # 1024
2024-11-08T17:17:15,602  INFO NetworkImpl:165  node # 4096
2024-11-08T17:17:15,639  INFO NetworkImpl:165  node # 16384
2024-11-08T17:17:15,666  INFO NetworkImpl:161  link # 1
2024-11-08T17:17:15,668  INFO NetworkImpl:161  link # 4
2024-11-08T17:17:15,671  INFO NetworkImpl:161  link # 16
2024-11-08T17:17:15,677  INFO NetworkImpl:161  link # 64
2024-11-08T17:17:15,687  INFO NetworkImpl:161  link # 256
2024-11-08T17:17:15,707  INFO NetworkImpl:161  link # 1024
2024-11-08T17:17:15,749  INFO NetworkImpl:161  link # 4096
2024-11-08T17:17:15,834  INFO NetworkImpl:161  link # 16384
2024-11-08T17:17:15,951  INFO ScenarioLoaderImpl:172 no facilities file set in config, therefore not loading any facilities.  This is not a problem except if you are using facilities
2024-11-08T17:17:15,951  INFO ScenarioLoaderImpl:188 no facility-attributes file set in config, not loading any facility attributes
2024-11-08T17:17:15,951  INFO ScenarioLoaderImpl:196 loading population from file:/home/isaacp/research/repos/EvMatsim/contribs/ev/scenarios/utahev/utahevplans.xml
2024-11-08T17:17:15,954  INFO MatsimXmlParser:170 starting to parse xml from url file:/home/isaacp/research/repos/EvMatsim/contribs/ev/scenarios/utahev/utahevplans.xml ...
2024-11-08T17:17:15,955  INFO PopulationReader:150 using plans_v4-reader.
2024-11-08T17:17:15,955  INFO MatsimXmlParser:296 Trying to load http://www.matsim.org/files/dtd/plans_v4.dtd. In some cases (e.g. network interface up but no connection), this may take a bit.
2024-11-08T17:17:16,269  INFO ParallelPopulationReaderMatsimV4:167 Start parallel population reading...
2024-11-08T17:17:16,275  INFO PopulationImpl:107  person # 1
2024-11-08T17:17:16,278  INFO PopulationImpl:107  person # 4
2024-11-08T17:17:16,279  INFO PopulationImpl:107  person # 16
2024-11-08T17:17:16,283  INFO PopulationImpl:107  person # 64
2024-11-08T17:17:16,289  INFO PopulationImpl:107  person # 256
2024-11-08T17:17:16,312  INFO PopulationImpl:107  person # 1024
2024-11-08T17:17:16,348  INFO PopulationImpl:107  person # 4096
2024-11-08T17:17:16,398  INFO PopulationImpl:107  person # 16384
2024-11-08T17:17:16,721  INFO PopulationImpl:107  person # 65536
2024-11-08T17:17:17,012  INFO ParallelPopulationReaderMatsimV4:202 Finished parallel population reading...
2024-11-08T17:17:17,013  INFO PopulationUtils:1122  person # 103028
2024-11-08T17:17:17,013  INFO ScenarioLoaderImpl:244 no person-attributes file set in config, not loading any person attributes
2024-11-08T17:17:17,013  INFO ScenarioLoaderImpl:258 no households file set in config, not loading households
2024-11-08T17:17:17,013  INFO ScenarioLoaderImpl:292 no transit schedule file set in config, not loading any transit schedule
2024-11-08T17:17:17,013  INFO ScenarioLoaderImpl:333 no transit vehicles file set in config, not loading any transit vehicles
2024-11-08T17:17:17,014  INFO ScenarioLoaderImpl:339 loading vehicles from utahevvehicles.xml
2024-11-08T17:17:17,015  INFO MatsimXmlParser:170 starting to parse xml from url file:/home/isaacp/research/repos/EvMatsim/contribs/ev/scenarios/utahev/utahevvehicles.xml ...
2024-11-08T17:17:17,031  INFO MatsimXmlParser:296 Trying to load http://www.matsim.org/files/dtd/vehicleDefinitions_v2.0.xsd. In some cases (e.g. network interface up but no connection), this may take a bit.
2024-11-08T17:17:17,201  INFO MatsimXmlParser:296 Trying to load http://www.matsim.org/files/dtd/matsimCommon.xsd. In some cases (e.g. network interface up but no connection), this may take a bit.
2024-11-08T17:17:17,364  INFO MatsimXmlParser:296 Trying to load http://www.matsim.org/files/dtd/vehicleDefinitionsEnumTypes.xsd. In some cases (e.g. network interface up but no connection), this may take a bit.
2024-11-08T17:17:17,534  INFO MatsimVehicleReader$VehicleReader:77 Found following schemaLocation in vehicle definition file: http://www.matsim.org/files/dtd http://www.matsim.org/files/dtd/vehicleDefinitions_v2.0.xsd
2024-11-08T17:17:17,535  INFO VehicleReaderV2:24 Using org.matsim.vehicles.VehicleReaderV2
2024-11-08T17:17:17,547  INFO Counter:70 [VehiclesImpl] added vehicle # 1
2024-11-08T17:17:17,548  INFO Counter:70 [VehiclesImpl] added vehicle # 2
2024-11-08T17:17:17,548  INFO Counter:70 [VehiclesImpl] added vehicle # 4
2024-11-08T17:17:17,549  INFO Counter:70 [VehiclesImpl] added vehicle # 8
2024-11-08T17:17:17,549  INFO Counter:70 [VehiclesImpl] added vehicle # 16
2024-11-08T17:17:17,551  INFO Counter:70 [VehiclesImpl] added vehicle # 32
2024-11-08T17:17:17,554  INFO Counter:70 [VehiclesImpl] added vehicle # 64
2024-11-08T17:17:17,559  INFO Counter:70 [VehiclesImpl] added vehicle # 128
2024-11-08T17:17:17,564  INFO Counter:70 [VehiclesImpl] added vehicle # 256
2024-11-08T17:17:17,568  INFO Counter:70 [VehiclesImpl] added vehicle # 512
2024-11-08T17:17:17,575  INFO Counter:70 [VehiclesImpl] added vehicle # 1024
2024-11-08T17:17:17,586  INFO Counter:70 [VehiclesImpl] added vehicle # 2048
2024-11-08T17:17:17,606  INFO Counter:70 [VehiclesImpl] added vehicle # 4096
2024-11-08T17:17:17,646  INFO Counter:70 [VehiclesImpl] added vehicle # 8192
2024-11-08T17:17:17,679  INFO Counter:70 [VehiclesImpl] added vehicle # 16384
2024-11-08T17:17:17,784  INFO Counter:70 [VehiclesImpl] added vehicle # 32768
2024-11-08T17:17:17,887  INFO Counter:70 [VehiclesImpl] added vehicle # 65536
2024-11-08T17:17:17,998  INFO VspConfigConsistencyCheckerImpl:68 NOT running vsp config consistency check because vsp defaults checking level is set to IGNORE
2024-11-08T17:17:18,599  INFO SimStepParallelEventsManagerImpl:80 number of threads=1
2024-11-08T17:17:18,601  INFO MatsimXmlParser:170 starting to parse xml from url file:/home/isaacp/research/repos/EvMatsim/contribs/ev/scenarios/utahev/utahevchargers.xml ...
2024-11-08T17:17:18,602  INFO MatsimXmlParser:296 Trying to load http://matsim.org/files/dtd/chargers_v1.dtd. In some cases (e.g. network interface up but no connection), this may take a bit.
2024-11-08T17:17:18,985  INFO EventsManagerImpl:138 adding Event-Handler: org.matsim.core.trafficmonitoring.TravelTimeCalculator
2024-11-08T17:17:18,985  INFO EventsManagerImpl:144   org.matsim.api.core.v01.events.handler.LinkEnterEventHandler
2024-11-08T17:17:18,985  INFO EventsManagerImpl:205     > org.matsim.api.core.v01.events.LinkEnterEvent
2024-11-08T17:17:18,985  INFO EventsManagerImpl:144   org.matsim.api.core.v01.events.handler.LinkLeaveEventHandler
2024-11-08T17:17:18,985  INFO EventsManagerImpl:205     > org.matsim.api.core.v01.events.LinkLeaveEvent
2024-11-08T17:17:18,985  INFO EventsManagerImpl:144   org.matsim.api.core.v01.events.handler.VehicleEntersTrafficEventHandler
2024-11-08T17:17:18,986  INFO EventsManagerImpl:205     > org.matsim.api.core.v01.events.VehicleEntersTrafficEvent
2024-11-08T17:17:18,986  INFO EventsManagerImpl:144   org.matsim.api.core.v01.events.handler.VehicleLeavesTrafficEventHandler
2024-11-08T17:17:18,986  INFO EventsManagerImpl:205     > org.matsim.api.core.v01.events.VehicleLeavesTrafficEvent
2024-11-08T17:17:18,986  INFO EventsManagerImpl:144   org.matsim.core.api.experimental.events.handler.VehicleArrivesAtFacilityEventHandler
2024-11-08T17:17:18,986  INFO EventsManagerImpl:205     > org.matsim.core.api.experimental.events.VehicleArrivesAtFacilityEvent
2024-11-08T17:17:18,986  INFO EventsManagerImpl:144   org.matsim.api.core.v01.events.handler.VehicleAbortsEventHandler
2024-11-08T17:17:18,986  INFO EventsManagerImpl:205     > org.matsim.api.core.v01.events.VehicleAbortsEvent
2024-11-08T17:17:18,986  INFO EventsManagerImpl:154 
2024-11-08T17:17:18,986  INFO EventsManagerImpl:138 adding Event-Handler: org.matsim.core.trafficmonitoring.TravelTimeCalculator
2024-11-08T17:17:18,986  INFO EventsManagerImpl:144   org.matsim.api.core.v01.events.handler.LinkEnterEventHandler
2024-11-08T17:17:18,986  INFO EventsManagerImpl:205     > org.matsim.api.core.v01.events.LinkEnterEvent
2024-11-08T17:17:18,986  INFO EventsManagerImpl:144   org.matsim.api.core.v01.events.handler.LinkLeaveEventHandler
2024-11-08T17:17:18,986  INFO EventsManagerImpl:205     > org.matsim.api.core.v01.events.LinkLeaveEvent
2024-11-08T17:17:18,987  INFO EventsManagerImpl:144   org.matsim.api.core.v01.events.handler.VehicleEntersTrafficEventHandler
2024-11-08T17:17:18,987  INFO EventsManagerImpl:205     > org.matsim.api.core.v01.events.VehicleEntersTrafficEvent
2024-11-08T17:17:18,987  INFO EventsManagerImpl:144   org.matsim.api.core.v01.events.handler.VehicleLeavesTrafficEventHandler
2024-11-08T17:17:18,987  INFO EventsManagerImpl:205     > org.matsim.api.core.v01.events.VehicleLeavesTrafficEvent
2024-11-08T17:17:18,987  INFO EventsManagerImpl:144   org.matsim.core.api.experimental.events.handler.VehicleArrivesAtFacilityEventHandler
2024-11-08T17:17:18,987  INFO EventsManagerImpl:205     > org.matsim.core.api.experimental.events.VehicleArrivesAtFacilityEvent
2024-11-08T17:17:18,987  INFO EventsManagerImpl:144   org.matsim.api.core.v01.events.handler.VehicleAbortsEventHandler
2024-11-08T17:17:18,987  INFO EventsManagerImpl:205     > org.matsim.api.core.v01.events.VehicleAbortsEvent
2024-11-08T17:17:18,987  INFO EventsManagerImpl:154 
2024-11-08T17:17:18,988  INFO OutputDirectoryHierarchy:278 ###########################################################
2024-11-08T17:17:18,988  INFO OutputDirectoryHierarchy:279 ### THE CONTROLER WILL DELETE THE EXISTING OUTPUT DIRECTORY:
2024-11-08T17:17:18,988  INFO OutputDirectoryHierarchy:280 ### ./scenarios/utahev/output
2024-11-08T17:17:18,988  INFO OutputDirectoryHierarchy:282 ###########################################################
2024-11-08T17:17:18,995  INFO StrategyManager:77 global innovation switch off after iteration: 2147483647
2024-11-08T17:17:18,998  INFO GenericStrategyManagerImpl:330 added change request:  iteration=-2147483648 newWeight=0.0 strategy=RandomPlanSelector_ReRoute
2024-11-08T17:17:18,998  INFO GenericStrategyManagerImpl:362 setting PlanSelectorForRemoval to class org.matsim.core.replanning.selectors.WorstPlanForRemovalSelector
2024-11-08T17:17:19,000  INFO EventsManagerImpl:138 adding Event-Handler: org.matsim.core.scoring.ScoringFunctionsForPopulation
2024-11-08T17:17:19,000  INFO EventsManagerImpl:144   org.matsim.core.events.handler.BasicEventHandler
2024-11-08T17:17:19,000  INFO EventsManagerImpl:205     > org.matsim.api.core.v01.events.Event
2024-11-08T17:17:19,001  INFO EventsManagerImpl:154 
2024-11-08T17:17:19,001  INFO EventsManagerImpl:138 adding Event-Handler: org.matsim.core.scoring.ScoringFunctionsForPopulation
2024-11-08T17:17:19,001  INFO EventsManagerImpl:144   org.matsim.core.events.handler.BasicEventHandler
2024-11-08T17:17:19,002  INFO EventsManagerImpl:205     > org.matsim.api.core.v01.events.Event
2024-11-08T17:17:19,002  INFO EventsManagerImpl:154 
2024-11-08T17:17:19,003  INFO MatsimXmlParser:170 starting to parse xml from url file:/home/isaacp/research/repos/EvMatsim/contribs/ev/scenarios/utahev/utahevcounts.xml ...
2024-11-08T17:17:19,005  INFO MatsimCountsReader:107 using counts_v1-reader.
2024-11-08T17:17:19,005  INFO MatsimXmlParser:296 Trying to load http://matsim.org/files/dtd/counts_v1.xsd. In some cases (e.g. network interface up but no connection), this may take a bit.
2024-11-08T17:17:19,186  INFO CalcLinkStats:151  resetting `count' to zero.  This info is here since we want to check when this is happening during normal simulation runs.  kai, jan'11
2024-11-08T17:17:19,225  INFO EventsManagerImpl:138 adding Event-Handler: org.matsim.analysis.VolumesAnalyzer
2024-11-08T17:17:19,225  INFO EventsManagerImpl:144   org.matsim.api.core.v01.events.handler.LinkLeaveEventHandler
2024-11-08T17:17:19,225  INFO EventsManagerImpl:205     > org.matsim.api.core.v01.events.LinkLeaveEvent
2024-11-08T17:17:19,225  INFO EventsManagerImpl:144   org.matsim.api.core.v01.events.handler.VehicleEntersTrafficEventHandler
2024-11-08T17:17:19,225  INFO EventsManagerImpl:205     > org.matsim.api.core.v01.events.VehicleEntersTrafficEvent
2024-11-08T17:17:19,225  INFO EventsManagerImpl:154 
2024-11-08T17:17:19,225  INFO EventsManagerImpl:138 adding Event-Handler: org.matsim.analysis.VolumesAnalyzer
2024-11-08T17:17:19,226  INFO EventsManagerImpl:144   org.matsim.api.core.v01.events.handler.LinkLeaveEventHandler
2024-11-08T17:17:19,226  INFO EventsManagerImpl:205     > org.matsim.api.core.v01.events.LinkLeaveEvent
2024-11-08T17:17:19,226  INFO EventsManagerImpl:144   org.matsim.api.core.v01.events.handler.VehicleEntersTrafficEventHandler
2024-11-08T17:17:19,226  INFO EventsManagerImpl:205     > org.matsim.api.core.v01.events.VehicleEntersTrafficEvent
2024-11-08T17:17:19,226  INFO EventsManagerImpl:154 
2024-11-08T17:17:19,226  INFO EventsManagerImpl:138 adding Event-Handler: org.matsim.analysis.LegHistogram
2024-11-08T17:17:19,226  INFO EventsManagerImpl:144   org.matsim.api.core.v01.events.handler.PersonDepartureEventHandler
2024-11-08T17:17:19,226  INFO EventsManagerImpl:205     > org.matsim.api.core.v01.events.PersonDepartureEvent
2024-11-08T17:17:19,226  INFO EventsManagerImpl:144   org.matsim.api.core.v01.events.handler.PersonArrivalEventHandler
2024-11-08T17:17:19,226  INFO EventsManagerImpl:205     > org.matsim.api.core.v01.events.PersonArrivalEvent
2024-11-08T17:17:19,226  INFO EventsManagerImpl:144   org.matsim.api.core.v01.events.handler.PersonStuckEventHandler
2024-11-08T17:17:19,226  INFO EventsManagerImpl:205     > org.matsim.api.core.v01.events.PersonStuckEvent
2024-11-08T17:17:19,227  INFO EventsManagerImpl:154 
2024-11-08T17:17:19,227  INFO EventsManagerImpl:138 adding Event-Handler: org.matsim.analysis.LegHistogram
2024-11-08T17:17:19,227  INFO EventsManagerImpl:144   org.matsim.api.core.v01.events.handler.PersonDepartureEventHandler
2024-11-08T17:17:19,227  INFO EventsManagerImpl:205     > org.matsim.api.core.v01.events.PersonDepartureEvent
2024-11-08T17:17:19,227  INFO EventsManagerImpl:144   org.matsim.api.core.v01.events.handler.PersonArrivalEventHandler
2024-11-08T17:17:19,227  INFO EventsManagerImpl:205     > org.matsim.api.core.v01.events.PersonArrivalEvent
2024-11-08T17:17:19,227  INFO EventsManagerImpl:144   org.matsim.api.core.v01.events.handler.PersonStuckEventHandler
2024-11-08T17:17:19,227  INFO EventsManagerImpl:205     > org.matsim.api.core.v01.events.PersonStuckEvent
2024-11-08T17:17:19,227  INFO EventsManagerImpl:154 
2024-11-08T17:17:19,228  INFO EventsManagerImpl:138 adding Event-Handler: org.matsim.analysis.CalcLegTimes
2024-11-08T17:17:19,228  INFO EventsManagerImpl:144   org.matsim.api.core.v01.events.handler.PersonDepartureEventHandler
2024-11-08T17:17:19,228  INFO EventsManagerImpl:205     > org.matsim.api.core.v01.events.PersonDepartureEvent
2024-11-08T17:17:19,228  INFO EventsManagerImpl:144   org.matsim.api.core.v01.events.handler.PersonArrivalEventHandler
2024-11-08T17:17:19,228  INFO EventsManagerImpl:205     > org.matsim.api.core.v01.events.PersonArrivalEvent
2024-11-08T17:17:19,228  INFO EventsManagerImpl:144   org.matsim.api.core.v01.events.handler.ActivityEndEventHandler
2024-11-08T17:17:19,228  INFO EventsManagerImpl:205     > org.matsim.api.core.v01.events.ActivityEndEvent
2024-11-08T17:17:19,228  INFO EventsManagerImpl:144   org.matsim.api.core.v01.events.handler.ActivityStartEventHandler
2024-11-08T17:17:19,228  INFO EventsManagerImpl:205     > org.matsim.api.core.v01.events.ActivityStartEvent
2024-11-08T17:17:19,228  INFO EventsManagerImpl:154 
2024-11-08T17:17:19,228  INFO EventsManagerImpl:138 adding Event-Handler: org.matsim.analysis.CalcLegTimes
2024-11-08T17:17:19,228  INFO EventsManagerImpl:144   org.matsim.api.core.v01.events.handler.PersonDepartureEventHandler
2024-11-08T17:17:19,228  INFO EventsManagerImpl:205     > org.matsim.api.core.v01.events.PersonDepartureEvent
2024-11-08T17:17:19,228  INFO EventsManagerImpl:144   org.matsim.api.core.v01.events.handler.PersonArrivalEventHandler
2024-11-08T17:17:19,228  INFO EventsManagerImpl:205     > org.matsim.api.core.v01.events.PersonArrivalEvent
2024-11-08T17:17:19,228  INFO EventsManagerImpl:144   org.matsim.api.core.v01.events.handler.ActivityEndEventHandler
2024-11-08T17:17:19,228  INFO EventsManagerImpl:205     > org.matsim.api.core.v01.events.ActivityEndEvent
2024-11-08T17:17:19,228  INFO EventsManagerImpl:144   org.matsim.api.core.v01.events.handler.ActivityStartEventHandler
2024-11-08T17:17:19,229  INFO EventsManagerImpl:205     > org.matsim.api.core.v01.events.ActivityStartEvent
2024-11-08T17:17:19,229  INFO EventsManagerImpl:154 
2024-11-08T17:17:19,247  INFO AbstractController:57 Used Controler-Class: org.matsim.core.controler.NewControler
2024-11-08T17:17:19,247  INFO Config:510 ConfigConsistencyChecker with runtime type=class org.matsim.core.config.consistency.ConfigConsistencyCheckerImpl was already added; not adding it a second time
2024-11-08T17:17:19,248  INFO EventsManagerImpl:138 adding Event-Handler: org.matsim.contrib.ev.charging.ChargingEventSequenceCollector
2024-11-08T17:17:19,248  INFO EventsManagerImpl:144   org.matsim.contrib.ev.charging.QueuedAtChargerEventHandler
2024-11-08T17:17:19,248  INFO EventsManagerImpl:205     > org.matsim.contrib.ev.charging.QueuedAtChargerEvent
2024-11-08T17:17:19,248  INFO EventsManagerImpl:144   org.matsim.contrib.ev.charging.QuitQueueAtChargerEventHandler
2024-11-08T17:17:19,248  INFO EventsManagerImpl:205     > org.matsim.contrib.ev.charging.QuitQueueAtChargerEvent
2024-11-08T17:17:19,248  INFO EventsManagerImpl:144   org.matsim.contrib.ev.charging.ChargingStartEventHandler
2024-11-08T17:17:19,248  INFO EventsManagerImpl:205     > org.matsim.contrib.ev.charging.ChargingStartEvent
2024-11-08T17:17:19,249  INFO EventsManagerImpl:144   org.matsim.contrib.ev.charging.ChargingEndEventHandler
2024-11-08T17:17:19,249  INFO EventsManagerImpl:205     > org.matsim.contrib.ev.charging.ChargingEndEvent
2024-11-08T17:17:19,249  INFO EventsManagerImpl:154 
2024-11-08T17:17:19,249  INFO EventsManagerImpl:138 adding Event-Handler: org.matsim.contrib.ev.charging.ChargingEventSequenceCollector
2024-11-08T17:17:19,249  INFO EventsManagerImpl:144   org.matsim.contrib.ev.charging.QueuedAtChargerEventHandler
2024-11-08T17:17:19,249  INFO EventsManagerImpl:205     > org.matsim.contrib.ev.charging.QueuedAtChargerEvent
2024-11-08T17:17:19,249  INFO EventsManagerImpl:144   org.matsim.contrib.ev.charging.QuitQueueAtChargerEventHandler
2024-11-08T17:17:19,249  INFO EventsManagerImpl:205     > org.matsim.contrib.ev.charging.QuitQueueAtChargerEvent
2024-11-08T17:17:19,249  INFO EventsManagerImpl:144   org.matsim.contrib.ev.charging.ChargingStartEventHandler
2024-11-08T17:17:19,249  INFO EventsManagerImpl:205     > org.matsim.contrib.ev.charging.ChargingStartEvent
2024-11-08T17:17:19,249  INFO EventsManagerImpl:144   org.matsim.contrib.ev.charging.ChargingEndEventHandler
2024-11-08T17:17:19,249  INFO EventsManagerImpl:205     > org.matsim.contrib.ev.charging.ChargingEndEvent
2024-11-08T17:17:19,249  INFO EventsManagerImpl:154 
2024-11-08T17:17:19,249  INFO EventsManagerImpl:138 adding Event-Handler: org.matsim.contrib.ev.stats.ChargerPowerTimeProfileCalculator
2024-11-08T17:17:19,249  INFO EventsManagerImpl:144   org.matsim.contrib.ev.charging.ChargingStartEventHandler
2024-11-08T17:17:19,250  INFO EventsManagerImpl:205     > org.matsim.contrib.ev.charging.ChargingStartEvent
2024-11-08T17:17:19,250  INFO EventsManagerImpl:144   org.matsim.contrib.ev.charging.ChargingEndEventHandler
2024-11-08T17:17:19,250  INFO EventsManagerImpl:205     > org.matsim.contrib.ev.charging.ChargingEndEvent
2024-11-08T17:17:19,250  INFO EventsManagerImpl:154 
2024-11-08T17:17:19,250  INFO EventsManagerImpl:138 adding Event-Handler: org.matsim.contrib.ev.stats.ChargerPowerTimeProfileCalculator
2024-11-08T17:17:19,250  INFO EventsManagerImpl:144   org.matsim.contrib.ev.charging.ChargingStartEventHandler
2024-11-08T17:17:19,250  INFO EventsManagerImpl:205     > org.matsim.contrib.ev.charging.ChargingStartEvent
2024-11-08T17:17:19,250  INFO EventsManagerImpl:144   org.matsim.contrib.ev.charging.ChargingEndEventHandler
2024-11-08T17:17:19,250  INFO EventsManagerImpl:205     > org.matsim.contrib.ev.charging.ChargingEndEvent
2024-11-08T17:17:19,250  INFO EventsManagerImpl:154 
2024-11-08T17:17:19,251  INFO Injector:81 === printInjector start ===
2024-11-08T17:17:19,251  INFO Injector:85 org.matsim.contrib.ev.fleet.ElectricFleet 
2024-11-08T17:17:19,251  INFO Injector:86   --> provider: org.matsim.contrib.ev.example.RunEvExampleWithEvScoring$1$1@18f5878[Scopes.SINGLETON]
2024-11-08T17:17:19,251  INFO Injector:87   --> source: org.matsim.contrib.ev.example.RunEvExampleWithEvScoring$1.install(RunEvExampleWithEvScoring.java:82)
2024-11-08T17:17:19,251  INFO Injector:89   --> scope: eager singleton
2024-11-08T17:17:19,252  INFO Injector:94   ==full==> ProviderInstanceBinding{key=Key[type=org.matsim.contrib.ev.fleet.ElectricFleet, annotation=[none]], source=org.matsim.contrib.ev.example.RunEvExampleWithEvScoring$1.install(RunEvExampleWithEvScoring.java:82), scope=eager singleton, provider=org.matsim.contrib.ev.example.RunEvExampleWithEvScoring$1$1@18f5878}
2024-11-08T17:17:19,252  INFO Injector:96 
2024-11-08T17:17:19,252  INFO Injector:85 org.matsim.core.scoring.ScoringFunctionFactory 
2024-11-08T17:17:19,252  INFO Injector:86   --> provider: FactoryProxy{key=Key[type=org.matsim.core.scoring.ScoringFunctionFactory, annotation=[none]], provider=com.google.inject.internal.ConstructorBindingImpl$Factory@38523c5a}
2024-11-08T17:17:19,253  INFO Injector:87   --> source: org.matsim.contrib.ev.example.RunEvExampleWithEvScoring$1.install(RunEvExampleWithEvScoring.java:95)
2024-11-08T17:17:19,253  INFO Injector:89   --> scope: Scopes.NO_SCOPE
2024-11-08T17:17:19,253  INFO Injector:92   --> target: Key[type=org.matsim.contrib.ev.scoring.EvScoringFunctionFactory, annotation=[none]]
2024-11-08T17:17:19,253  INFO Injector:94   ==full==> LinkedKeyBinding{key=Key[type=org.matsim.core.scoring.ScoringFunctionFactory, annotation=[none]], source=org.matsim.contrib.ev.example.RunEvExampleWithEvScoring$1.install(RunEvExampleWithEvScoring.java:95), scope=Scopes.NO_SCOPE, target=Key[type=org.matsim.contrib.ev.scoring.EvScoringFunctionFactory, annotation=[none]]}
2024-11-08T17:17:19,253  INFO Injector:96 
2024-11-08T17:17:19,253  INFO Injector:85 org.matsim.contrib.ev.fleet.ElectricFleetSpecification 
2024-11-08T17:17:19,253  INFO Injector:86   --> provider: org.matsim.contrib.ev.fleet.ElectricFleetModule$1@543efbe3[Scopes.SINGLETON]
2024-11-08T17:17:19,253  INFO Injector:87   --> source: org.matsim.contrib.ev.fleet.ElectricFleetModule.install(ElectricFleetModule.java:47)
2024-11-08T17:17:19,253  INFO Injector:89   --> scope: eager singleton
2024-11-08T17:17:19,253  INFO Injector:94   ==full==> ProviderInstanceBinding{key=Key[type=org.matsim.contrib.ev.fleet.ElectricFleetSpecification, annotation=[none]], source=org.matsim.contrib.ev.fleet.ElectricFleetModule.install(ElectricFleetModule.java:47), scope=eager singleton, provider=org.matsim.contrib.ev.fleet.ElectricFleetModule$1@543efbe3}
2024-11-08T17:17:19,253  INFO Injector:96 
2024-11-08T17:17:19,253  INFO Injector:85 org.matsim.core.mobsim.qsim.AbstractQSimModule @com.google.inject.internal.Element(setName=,uniqueId=132, type=MULTIBINDER, keyType=)
2024-11-08T17:17:19,253  INFO Injector:86   --> provider: ConstantFactory{value=org.matsim.contrib.ev.fleet.ElectricFleetModule$2@18717d14}[Scopes.SINGLETON]
2024-11-08T17:17:19,253  INFO Injector:87   --> source: org.matsim.contrib.ev.fleet.ElectricFleetModule.install(ElectricFleetModule.java:57)
2024-11-08T17:17:19,254  INFO Injector:89   --> scope: eager singleton
2024-11-08T17:17:19,254  INFO Injector:94   ==full==> InstanceBinding{key=Key[type=org.matsim.core.mobsim.qsim.AbstractQSimModule, annotation=@com.google.inject.internal.Element(setName=,uniqueId=132, type=MULTIBINDER, keyType=)], source=org.matsim.contrib.ev.fleet.ElectricFleetModule.install(ElectricFleetModule.java:57), instance=org.matsim.contrib.ev.fleet.ElectricFleetModule$2@18717d14}
2024-11-08T17:17:19,254  INFO Injector:96 
2024-11-08T17:17:19,254  INFO Injector:85 org.matsim.api.core.v01.network.Network @com.google.inject.name.Named("chargers")
2024-11-08T17:17:19,260  INFO Injector:86   --> provider: FactoryProxy{key=Key[type=org.matsim.api.core.v01.network.Network, annotation=@com.google.inject.name.Named("chargers")], provider=@Provides org.matsim.core.scenario.ScenarioByInstanceModule.provideNetwork(ScenarioByInstanceModule.java:60)}[Scopes.SINGLETON]
2024-11-08T17:17:19,260  INFO Injector:87   --> source: org.matsim.contrib.ev.infrastructure.ChargingInfrastructureModule.install(ChargingInfrastructureModule.java:56)
2024-11-08T17:17:19,260  INFO Injector:89   --> scope: eager singleton
2024-11-08T17:17:19,260  INFO Injector:92   --> target: Key[type=org.matsim.api.core.v01.network.Network, annotation=[none]]
2024-11-08T17:17:19,260  INFO Injector:94   ==full==> LinkedKeyBinding{key=Key[type=org.matsim.api.core.v01.network.Network, annotation=@com.google.inject.name.Named("chargers")], source=org.matsim.contrib.ev.infrastructure.ChargingInfrastructureModule.install(ChargingInfrastructureModule.java:56), scope=eager singleton, target=Key[type=org.matsim.api.core.v01.network.Network, annotation=[none]]}
2024-11-08T17:17:19,260  INFO Injector:96 
2024-11-08T17:17:19,260  INFO Injector:85 org.matsim.contrib.ev.infrastructure.ChargingInfrastructureSpecification 
2024-11-08T17:17:19,260  INFO Injector:86   --> provider: org.matsim.contrib.ev.infrastructure.ChargingInfrastructureModule$$Lambda/0x00007f6dcc47a050@753b1461[Scopes.SINGLETON]
2024-11-08T17:17:19,261  INFO Injector:87   --> source: org.matsim.contrib.ev.infrastructure.ChargingInfrastructureModule.install(ChargingInfrastructureModule.java:58)
2024-11-08T17:17:19,261  INFO Injector:89   --> scope: eager singleton
2024-11-08T17:17:19,261  INFO Injector:94   ==full==> ProviderInstanceBinding{key=Key[type=org.matsim.contrib.ev.infrastructure.ChargingInfrastructureSpecification, annotation=[none]], source=org.matsim.contrib.ev.infrastructure.ChargingInfrastructureModule.install(ChargingInfrastructureModule.java:58), scope=eager singleton, provider=org.matsim.contrib.ev.infrastructure.ChargingInfrastructureModule$$Lambda/0x00007f6dcc47a050@753b1461}
2024-11-08T17:17:19,261  INFO Injector:96 
2024-11-08T17:17:19,261  INFO Injector:85 org.matsim.core.mobsim.qsim.AbstractQSimModule @com.google.inject.internal.Element(setName=,uniqueId=133, type=MULTIBINDER, keyType=)
2024-11-08T17:17:19,261  INFO Injector:86   --> provider: ConstantFactory{value=org.matsim.contrib.ev.infrastructure.ChargingInfrastructureModule$1@4ed45301}[Scopes.SINGLETON]
2024-11-08T17:17:19,261  INFO Injector:87   --> source: org.matsim.contrib.ev.infrastructure.ChargingInfrastructureModule.install(ChargingInfrastructureModule.java:65)
2024-11-08T17:17:19,261  INFO Injector:89   --> scope: eager singleton
2024-11-08T17:17:19,261  INFO Injector:94   ==full==> InstanceBinding{key=Key[type=org.matsim.core.mobsim.qsim.AbstractQSimModule, annotation=@com.google.inject.internal.Element(setName=,uniqueId=133, type=MULTIBINDER, keyType=)], source=org.matsim.contrib.ev.infrastructure.ChargingInfrastructureModule.install(ChargingInfrastructureModule.java:65), instance=org.matsim.contrib.ev.infrastructure.ChargingInfrastructureModule$1@4ed45301}
2024-11-08T17:17:19,261  INFO Injector:96 
2024-11-08T17:17:19,261  INFO Injector:85 org.matsim.contrib.ev.charging.ChargingLogic$Factory 
2024-11-08T17:17:19,261  INFO Injector:86   --> provider: org.matsim.contrib.ev.charging.ChargingModule$1@69ff5d6c
2024-11-08T17:17:19,261  INFO Injector:87   --> source: org.matsim.contrib.ev.charging.ChargingModule.install(ChargingModule.java:39)
2024-11-08T17:17:19,261  INFO Injector:89   --> scope: Scopes.NO_SCOPE
2024-11-08T17:17:19,262  INFO Injector:94   ==full==> ProviderInstanceBinding{key=Key[type=org.matsim.contrib.ev.charging.ChargingLogic$Factory, annotation=[none]], source=org.matsim.contrib.ev.charging.ChargingModule.install(ChargingModule.java:39), scope=Scopes.NO_SCOPE, provider=org.matsim.contrib.ev.charging.ChargingModule$1@69ff5d6c}
2024-11-08T17:17:19,262  INFO Injector:96 
2024-11-08T17:17:19,262  INFO Injector:85 org.matsim.contrib.ev.charging.ChargingPower$Factory 
2024-11-08T17:17:19,262  INFO Injector:86   --> provider: ConstantFactory{value=org.matsim.contrib.ev.charging.ChargingModule$$Lambda/0x00007f6dcc47b3c8@92a65f7}[Scopes.SINGLETON]
2024-11-08T17:17:19,262  INFO Injector:87   --> source: org.matsim.contrib.ev.charging.ChargingModule.install(ChargingModule.java:47)
2024-11-08T17:17:19,262  INFO Injector:89   --> scope: eager singleton
2024-11-08T17:17:19,262  INFO Injector:94   ==full==> InstanceBinding{key=Key[type=org.matsim.contrib.ev.charging.ChargingPower$Factory, annotation=[none]], source=org.matsim.contrib.ev.charging.ChargingModule.install(ChargingModule.java:47), instance=org.matsim.contrib.ev.charging.ChargingModule$$Lambda/0x00007f6dcc47b3c8@92a65f7}
2024-11-08T17:17:19,262  INFO Injector:96 
2024-11-08T17:17:19,262  INFO Injector:85 org.matsim.core.mobsim.qsim.AbstractQSimModule @com.google.inject.internal.Element(setName=,uniqueId=134, type=MULTIBINDER, keyType=)
2024-11-08T17:17:19,262  INFO Injector:86   --> provider: ConstantFactory{value=org.matsim.contrib.ev.charging.ChargingModule$2@e70658e}[Scopes.SINGLETON]
2024-11-08T17:17:19,262  INFO Injector:87   --> source: org.matsim.contrib.ev.charging.ChargingModule.install(ChargingModule.java:49)
2024-11-08T17:17:19,262  INFO Injector:89   --> scope: eager singleton
2024-11-08T17:17:19,262  INFO Injector:94   ==full==> InstanceBinding{key=Key[type=org.matsim.core.mobsim.qsim.AbstractQSimModule, annotation=@com.google.inject.internal.Element(setName=,uniqueId=134, type=MULTIBINDER, keyType=)], source=org.matsim.contrib.ev.charging.ChargingModule.install(ChargingModule.java:49), instance=org.matsim.contrib.ev.charging.ChargingModule$2@e70658e}
2024-11-08T17:17:19,262  INFO Injector:96 
2024-11-08T17:17:19,262  INFO Injector:85 org.matsim.contrib.ev.discharging.DriveEnergyConsumption$Factory 
2024-11-08T17:17:19,262  INFO Injector:86   --> provider: ConstantFactory{value=org.matsim.contrib.ev.discharging.DischargingModule$$Lambda/0x00007f6dcc47bb30@2237e630}[Scopes.SINGLETON]
2024-11-08T17:17:19,262  INFO Injector:87   --> source: org.matsim.contrib.ev.discharging.DischargingModule.install(DischargingModule.java:36)
2024-11-08T17:17:19,263  INFO Injector:89   --> scope: eager singleton
2024-11-08T17:17:19,263  INFO Injector:94   ==full==> InstanceBinding{key=Key[type=org.matsim.contrib.ev.discharging.DriveEnergyConsumption$Factory, annotation=[none]], source=org.matsim.contrib.ev.discharging.DischargingModule.install(DischargingModule.java:36), instance=org.matsim.contrib.ev.discharging.DischargingModule$$Lambda/0x00007f6dcc47bb30@2237e630}
2024-11-08T17:17:19,263  INFO Injector:96 
2024-11-08T17:17:19,263  INFO Injector:85 org.matsim.contrib.ev.temperature.TemperatureService 
2024-11-08T17:17:19,263  INFO Injector:86   --> provider: ConstantFactory{value=org.matsim.contrib.ev.discharging.DischargingModule$$Lambda/0x00007f6dcc47e000@30f27865}[Scopes.SINGLETON]
2024-11-08T17:17:19,263  INFO Injector:87   --> source: org.matsim.contrib.ev.discharging.DischargingModule.install(DischargingModule.java:37)
2024-11-08T17:17:19,263  INFO Injector:89   --> scope: eager singleton
2024-11-08T17:17:19,263  INFO Injector:94   ==full==> InstanceBinding{key=Key[type=org.matsim.contrib.ev.temperature.TemperatureService, annotation=[none]], source=org.matsim.contrib.ev.discharging.DischargingModule.install(DischargingModule.java:37), instance=org.matsim.contrib.ev.discharging.DischargingModule$$Lambda/0x00007f6dcc47e000@30f27865}
2024-11-08T17:17:19,263  INFO Injector:96 
2024-11-08T17:17:19,263  INFO Injector:85 org.matsim.contrib.ev.discharging.AuxEnergyConsumption$Factory 
2024-11-08T17:17:19,263  INFO Injector:86   --> provider: FactoryProxy{key=Key[type=org.matsim.contrib.ev.discharging.AuxEnergyConsumption$Factory, annotation=[none]], provider=com.google.inject.internal.ConstructorBindingImpl$Factory@1d47ea06}[Scopes.SINGLETON]
2024-11-08T17:17:19,263  INFO Injector:87   --> source: org.matsim.contrib.ev.discharging.DischargingModule.install(DischargingModule.java:38)
2024-11-08T17:17:19,263  INFO Injector:89   --> scope: Scopes.SINGLETON
2024-11-08T17:17:19,263  INFO Injector:92   --> target: Key[type=org.matsim.contrib.ev.discharging.OhdeSlaskiAuxEnergyConsumption$Factory, annotation=[none]]
2024-11-08T17:17:19,263  INFO Injector:94   ==full==> LinkedKeyBinding{key=Key[type=org.matsim.contrib.ev.discharging.AuxEnergyConsumption$Factory, annotation=[none]], source=org.matsim.contrib.ev.discharging.DischargingModule.install(DischargingModule.java:38), scope=Scopes.SINGLETON, target=Key[type=org.matsim.contrib.ev.discharging.OhdeSlaskiAuxEnergyConsumption$Factory, annotation=[none]]}
2024-11-08T17:17:19,263  INFO Injector:96 
2024-11-08T17:17:19,263  INFO Injector:85 org.matsim.core.mobsim.qsim.AbstractQSimModule @com.google.inject.internal.Element(setName=,uniqueId=135, type=MULTIBINDER, keyType=)
2024-11-08T17:17:19,263  INFO Injector:86   --> provider: ConstantFactory{value=org.matsim.contrib.ev.discharging.DischargingModule$1@74a34079}[Scopes.SINGLETON]
2024-11-08T17:17:19,263  INFO Injector:87   --> source: org.matsim.contrib.ev.discharging.DischargingModule.install(DischargingModule.java:40)
2024-11-08T17:17:19,264  INFO Injector:89   --> scope: eager singleton
2024-11-08T17:17:19,264  INFO Injector:94   ==full==> InstanceBinding{key=Key[type=org.matsim.core.mobsim.qsim.AbstractQSimModule, annotation=@com.google.inject.internal.Element(setName=,uniqueId=135, type=MULTIBINDER, keyType=)], source=org.matsim.contrib.ev.discharging.DischargingModule.install(DischargingModule.java:40), instance=org.matsim.contrib.ev.discharging.DischargingModule$1@74a34079}
2024-11-08T17:17:19,264  INFO Injector:96 
2024-11-08T17:17:19,264  INFO Injector:85 org.matsim.core.events.handler.EventHandler @com.google.inject.internal.Element(setName=,uniqueId=136, type=MULTIBINDER, keyType=)
2024-11-08T17:17:19,264  INFO Injector:86   --> provider: FactoryProxy{key=Key[type=org.matsim.core.events.handler.EventHandler, annotation=@com.google.inject.internal.Element(setName=,uniqueId=136, type=MULTIBINDER, keyType=)], provider=com.google.inject.internal.ConstructorBindingImpl$Factory@47982184[Scopes.SINGLETON]}
2024-11-08T17:17:19,264  INFO Injector:87   --> source: org.matsim.contrib.ev.stats.EvStatsModule.install(EvStatsModule.java:45)
2024-11-08T17:17:19,264  INFO Injector:89   --> scope: Scopes.NO_SCOPE
2024-11-08T17:17:19,264  INFO Injector:92   --> target: Key[type=org.matsim.contrib.ev.charging.ChargingEventSequenceCollector, annotation=[none]]
2024-11-08T17:17:19,264  INFO Injector:94   ==full==> LinkedKeyBinding{key=Key[type=org.matsim.core.events.handler.EventHandler, annotation=@com.google.inject.internal.Element(setName=,uniqueId=136, type=MULTIBINDER, keyType=)], source=org.matsim.contrib.ev.stats.EvStatsModule.install(EvStatsModule.java:45), scope=Scopes.NO_SCOPE, target=Key[type=org.matsim.contrib.ev.charging.ChargingEventSequenceCollector, annotation=[none]]}
2024-11-08T17:17:19,264  INFO Injector:96 
2024-11-08T17:17:19,264  INFO Injector:85 org.matsim.core.controler.listener.ControlerListener @com.google.inject.internal.Element(setName=,uniqueId=137, type=MULTIBINDER, keyType=)
2024-11-08T17:17:19,264  INFO Injector:86   --> provider: FactoryProxy{key=Key[type=org.matsim.core.controler.listener.ControlerListener, annotation=@com.google.inject.internal.Element(setName=,uniqueId=137, type=MULTIBINDER, keyType=)], provider=com.google.inject.internal.ConstructorBindingImpl$Factory@5a034921}[Scopes.SINGLETON]
2024-11-08T17:17:19,264  INFO Injector:87   --> source: org.matsim.contrib.ev.stats.EvStatsModule.install(EvStatsModule.java:46)
2024-11-08T17:17:19,264  INFO Injector:89   --> scope: Scopes.SINGLETON
2024-11-08T17:17:19,264  INFO Injector:92   --> target: Key[type=org.matsim.contrib.ev.stats.ChargingProceduresCSVWriter, annotation=[none]]
2024-11-08T17:17:19,264  INFO Injector:94   ==full==> LinkedKeyBinding{key=Key[type=org.matsim.core.controler.listener.ControlerListener, annotation=@com.google.inject.internal.Element(setName=,uniqueId=137, type=MULTIBINDER, keyType=)], source=org.matsim.contrib.ev.stats.EvStatsModule.install(EvStatsModule.java:46), scope=Scopes.SINGLETON, target=Key[type=org.matsim.contrib.ev.stats.ChargingProceduresCSVWriter, annotation=[none]]}
2024-11-08T17:17:19,264  INFO Injector:96 
2024-11-08T17:17:19,264  INFO Injector:85 org.matsim.core.mobsim.qsim.AbstractQSimModule @com.google.inject.internal.Element(setName=,uniqueId=138, type=MULTIBINDER, keyType=)
2024-11-08T17:17:19,264  INFO Injector:86   --> provider: ConstantFactory{value=org.matsim.contrib.ev.stats.EvStatsModule$1@67290a24}[Scopes.SINGLETON]
2024-11-08T17:17:19,265  INFO Injector:87   --> source: org.matsim.contrib.ev.stats.EvStatsModule.install(EvStatsModule.java:48)
2024-11-08T17:17:19,265  INFO Injector:89   --> scope: eager singleton
2024-11-08T17:17:19,265  INFO Injector:94   ==full==> InstanceBinding{key=Key[type=org.matsim.core.mobsim.qsim.AbstractQSimModule, annotation=@com.google.inject.internal.Element(setName=,uniqueId=138, type=MULTIBINDER, keyType=)], source=org.matsim.contrib.ev.stats.EvStatsModule.install(EvStatsModule.java:48), instance=org.matsim.contrib.ev.stats.EvStatsModule$1@67290a24}
2024-11-08T17:17:19,265  INFO Injector:96 
2024-11-08T17:17:19,265  INFO Injector:85 org.matsim.core.events.handler.EventHandler @com.google.inject.internal.Element(setName=,uniqueId=139, type=MULTIBINDER, keyType=)
2024-11-08T17:17:19,265  INFO Injector:86   --> provider: FactoryProxy{key=Key[type=org.matsim.core.events.handler.EventHandler, annotation=@com.google.inject.internal.Element(setName=,uniqueId=139, type=MULTIBINDER, keyType=)], provider=com.google.inject.internal.ConstructorBindingImpl$Factory@79113354[Scopes.SINGLETON]}
2024-11-08T17:17:19,265  INFO Injector:87   --> source: org.matsim.contrib.ev.stats.EvStatsModule.install(EvStatsModule.java:66)
2024-11-08T17:17:19,265  INFO Injector:89   --> scope: Scopes.NO_SCOPE
2024-11-08T17:17:19,265  INFO Injector:92   --> target: Key[type=org.matsim.contrib.ev.stats.ChargerPowerTimeProfileCalculator, annotation=[none]]
2024-11-08T17:17:19,265  INFO Injector:94   ==full==> LinkedKeyBinding{key=Key[type=org.matsim.core.events.handler.EventHandler, annotation=@com.google.inject.internal.Element(setName=,uniqueId=139, type=MULTIBINDER, keyType=)], source=org.matsim.contrib.ev.stats.EvStatsModule.install(EvStatsModule.java:66), scope=Scopes.NO_SCOPE, target=Key[type=org.matsim.contrib.ev.stats.ChargerPowerTimeProfileCalculator, annotation=[none]]}
2024-11-08T17:17:19,265  INFO Injector:96 
2024-11-08T17:17:19,265  INFO Injector:85 org.matsim.core.controler.listener.ControlerListener @com.google.inject.internal.Element(setName=,uniqueId=140, type=MULTIBINDER, keyType=)
2024-11-08T17:17:19,265  INFO Injector:86   --> provider: org.matsim.contrib.ev.stats.EvStatsModule$2@2685e2fe
2024-11-08T17:17:19,265  INFO Injector:87   --> source: org.matsim.contrib.ev.stats.EvStatsModule.install(EvStatsModule.java:67)
2024-11-08T17:17:19,265  INFO Injector:89   --> scope: Scopes.NO_SCOPE
2024-11-08T17:17:19,265  INFO Injector:94   ==full==> ProviderInstanceBinding{key=Key[type=org.matsim.core.controler.listener.ControlerListener, annotation=@com.google.inject.internal.Element(setName=,uniqueId=140, type=MULTIBINDER, keyType=)], source=org.matsim.contrib.ev.stats.EvStatsModule.install(EvStatsModule.java:67), scope=Scopes.NO_SCOPE, provider=org.matsim.contrib.ev.stats.EvStatsModule$2@2685e2fe}
2024-11-08T17:17:19,265  INFO Injector:96 
2024-11-08T17:17:19,265  INFO Injector:85 org.matsim.core.mobsim.qsim.AbstractQSimModule @com.google.inject.internal.Element(setName=,uniqueId=141, type=MULTIBINDER, keyType=)
2024-11-08T17:17:19,265  INFO Injector:86   --> provider: ConstantFactory{value=org.matsim.contrib.ev.EvModule$1@b09119b}[Scopes.SINGLETON]
2024-11-08T17:17:19,266  INFO Injector:87   --> source: org.matsim.contrib.ev.EvModule.install(EvModule.java:41)
2024-11-08T17:17:19,266  INFO Injector:89   --> scope: eager singleton
2024-11-08T17:17:19,266  INFO Injector:94   ==full==> InstanceBinding{key=Key[type=org.matsim.core.mobsim.qsim.AbstractQSimModule, annotation=@com.google.inject.internal.Element(setName=,uniqueId=141, type=MULTIBINDER, keyType=)], source=org.matsim.contrib.ev.EvModule.install(EvModule.java:41), instance=org.matsim.contrib.ev.EvModule$1@b09119b}
2024-11-08T17:17:19,266  INFO Injector:96 
2024-11-08T17:17:19,266  INFO Injector:85 org.matsim.core.router.RoutingModule @com.google.inject.name.Named("car")
2024-11-08T17:17:19,266  INFO Injector:86   --> provider: org.matsim.contrib.ev.routing.EvNetworkRoutingProvider@7cccccbd
2024-11-08T17:17:19,266  INFO Injector:87   --> source: org.matsim.contrib.ev.example.RunEvExampleWithEvScoring$1.install(RunEvExampleWithEvScoring.java:98)
2024-11-08T17:17:19,266  INFO Injector:89   --> scope: Scopes.NO_SCOPE
2024-11-08T17:17:19,266  INFO Injector:94   ==full==> ProviderInstanceBinding{key=Key[type=org.matsim.core.router.RoutingModule, annotation=@com.google.inject.name.Named("car")], source=org.matsim.contrib.ev.example.RunEvExampleWithEvScoring$1.install(RunEvExampleWithEvScoring.java:98), scope=Scopes.NO_SCOPE, provider=org.matsim.contrib.ev.routing.EvNetworkRoutingProvider@7cccccbd}
2024-11-08T17:17:19,266  INFO Injector:96 
2024-11-08T17:17:19,266  INFO Injector:85 org.matsim.api.core.v01.Scenario 
2024-11-08T17:17:19,266  INFO Injector:86   --> provider: ConstantFactory{value=org.matsim.core.scenario.MutableScenario@5ba4e1aa}[Scopes.SINGLETON]
2024-11-08T17:17:19,266  INFO Injector:87   --> source: org.matsim.core.scenario.ScenarioByInstanceModule.install(ScenarioByInstanceModule.java:52)
2024-11-08T17:17:19,266  INFO Injector:89   --> scope: eager singleton
2024-11-08T17:17:19,266  INFO Injector:94   ==full==> InstanceBinding{key=Key[type=org.matsim.api.core.v01.Scenario, annotation=[none]], source=org.matsim.core.scenario.ScenarioByInstanceModule.install(ScenarioByInstanceModule.java:52), instance=org.matsim.core.scenario.MutableScenario@5ba4e1aa}
2024-11-08T17:17:19,266  INFO Injector:96 
2024-11-08T17:17:19,266  INFO Injector:85 org.matsim.facilities.ActivityFacilities 
2024-11-08T17:17:19,266  INFO Injector:86   --> provider: @Provides org.matsim.core.scenario.ScenarioByInstanceModule.provideActivityFacilities(ScenarioByInstanceModule.java:72)
2024-11-08T17:17:19,267  INFO Injector:87   --> source: org.matsim.facilities.ActivityFacilities org.matsim.core.scenario.ScenarioByInstanceModule.provideActivityFacilities(org.matsim.api.core.v01.Scenario)
2024-11-08T17:17:19,267  INFO Injector:89   --> scope: Scopes.NO_SCOPE
2024-11-08T17:17:19,267  INFO Injector:94   ==full==> ProviderInstanceBinding{key=Key[type=org.matsim.facilities.ActivityFacilities, annotation=[none]], source=org.matsim.facilities.ActivityFacilities org.matsim.core.scenario.ScenarioByInstanceModule.provideActivityFacilities(org.matsim.api.core.v01.Scenario), scope=Scopes.NO_SCOPE, provider=@Provides org.matsim.core.scenario.ScenarioByInstanceModule.provideActivityFacilities(ScenarioByInstanceModule.java:72)}
2024-11-08T17:17:19,267  INFO Injector:96 
2024-11-08T17:17:19,267  INFO Injector:85 org.matsim.households.Households 
2024-11-08T17:17:19,267  INFO Injector:86   --> provider: @Provides org.matsim.core.scenario.ScenarioByInstanceModule.provideHouseholds(ScenarioByInstanceModule.java:77)
2024-11-08T17:17:19,267  INFO Injector:87   --> source: org.matsim.households.Households org.matsim.core.scenario.ScenarioByInstanceModule.provideHouseholds(org.matsim.api.core.v01.Scenario)
2024-11-08T17:17:19,267  INFO Injector:89   --> scope: Scopes.NO_SCOPE
2024-11-08T17:17:19,267  INFO Injector:94   ==full==> ProviderInstanceBinding{key=Key[type=org.matsim.households.Households, annotation=[none]], source=org.matsim.households.Households org.matsim.core.scenario.ScenarioByInstanceModule.provideHouseholds(org.matsim.api.core.v01.Scenario), scope=Scopes.NO_SCOPE, provider=@Provides org.matsim.core.scenario.ScenarioByInstanceModule.provideHouseholds(ScenarioByInstanceModule.java:77)}
2024-11-08T17:17:19,267  INFO Injector:96 
2024-11-08T17:17:19,267  INFO Injector:85 org.matsim.lanes.Lanes 
2024-11-08T17:17:19,267  INFO Injector:86   --> provider: @Provides org.matsim.core.scenario.ScenarioByInstanceModule.provideLanes(ScenarioByInstanceModule.java:87)
2024-11-08T17:17:19,267  INFO Injector:87   --> source: org.matsim.lanes.Lanes org.matsim.core.scenario.ScenarioByInstanceModule.provideLanes(org.matsim.api.core.v01.Scenario)
2024-11-08T17:17:19,267  INFO Injector:89   --> scope: Scopes.NO_SCOPE
2024-11-08T17:17:19,267  INFO Injector:94   ==full==> ProviderInstanceBinding{key=Key[type=org.matsim.lanes.Lanes, annotation=[none]], source=org.matsim.lanes.Lanes org.matsim.core.scenario.ScenarioByInstanceModule.provideLanes(org.matsim.api.core.v01.Scenario), scope=Scopes.NO_SCOPE, provider=@Provides org.matsim.core.scenario.ScenarioByInstanceModule.provideLanes(ScenarioByInstanceModule.java:87)}
2024-11-08T17:17:19,268  INFO Injector:96 
2024-11-08T17:17:19,268  INFO Injector:85 org.matsim.api.core.v01.network.Network 
2024-11-08T17:17:19,268  INFO Injector:86   --> provider: @Provides org.matsim.core.scenario.ScenarioByInstanceModule.provideNetwork(ScenarioByInstanceModule.java:60)
2024-11-08T17:17:19,268  INFO Injector:87   --> source: org.matsim.api.core.v01.network.Network org.matsim.core.scenario.ScenarioByInstanceModule.provideNetwork(org.matsim.api.core.v01.Scenario)
2024-11-08T17:17:19,268  INFO Injector:89   --> scope: Scopes.NO_SCOPE
2024-11-08T17:17:19,268  INFO Injector:94   ==full==> ProviderInstanceBinding{key=Key[type=org.matsim.api.core.v01.network.Network, annotation=[none]], source=org.matsim.api.core.v01.network.Network org.matsim.core.scenario.ScenarioByInstanceModule.provideNetwork(org.matsim.api.core.v01.Scenario), scope=Scopes.NO_SCOPE, provider=@Provides org.matsim.core.scenario.ScenarioByInstanceModule.provideNetwork(ScenarioByInstanceModule.java:60)}
2024-11-08T17:17:19,268  INFO Injector:96 
2024-11-08T17:17:19,268  INFO Injector:85 org.matsim.api.core.v01.population.Population 
2024-11-08T17:17:19,268  INFO Injector:86   --> provider: @Provides org.matsim.core.scenario.ScenarioByInstanceModule.providePopulation(ScenarioByInstanceModule.java:64)
2024-11-08T17:17:19,268  INFO Injector:87   --> source: org.matsim.api.core.v01.population.Population org.matsim.core.scenario.ScenarioByInstanceModule.providePopulation(org.matsim.api.core.v01.Scenario)
2024-11-08T17:17:19,268  INFO Injector:89   --> scope: Scopes.NO_SCOPE
2024-11-08T17:17:19,268  INFO Injector:94   ==full==> ProviderInstanceBinding{key=Key[type=org.matsim.api.core.v01.population.Population, annotation=[none]], source=org.matsim.api.core.v01.population.Population org.matsim.core.scenario.ScenarioByInstanceModule.providePopulation(org.matsim.api.core.v01.Scenario), scope=Scopes.NO_SCOPE, provider=@Provides org.matsim.core.scenario.ScenarioByInstanceModule.providePopulation(ScenarioByInstanceModule.java:64)}
2024-11-08T17:17:19,268  INFO Injector:96 
2024-11-08T17:17:19,269  INFO Injector:85 org.matsim.api.core.v01.population.PopulationFactory 
2024-11-08T17:17:19,269  INFO Injector:86   --> provider: @Provides org.matsim.core.scenario.ScenarioByInstanceModule.providePopulationFactory(ScenarioByInstanceModule.java:68)
2024-11-08T17:17:19,269  INFO Injector:87   --> source: org.matsim.api.core.v01.population.PopulationFactory org.matsim.core.scenario.ScenarioByInstanceModule.providePopulationFactory(org.matsim.api.core.v01.population.Population)
2024-11-08T17:17:19,269  INFO Injector:89   --> scope: Scopes.NO_SCOPE
2024-11-08T17:17:19,269  INFO Injector:94   ==full==> ProviderInstanceBinding{key=Key[type=org.matsim.api.core.v01.population.PopulationFactory, annotation=[none]], source=org.matsim.api.core.v01.population.PopulationFactory org.matsim.core.scenario.ScenarioByInstanceModule.providePopulationFactory(org.matsim.api.core.v01.population.Population), scope=Scopes.NO_SCOPE, provider=@Provides org.matsim.core.scenario.ScenarioByInstanceModule.providePopulationFactory(ScenarioByInstanceModule.java:68)}
2024-11-08T17:17:19,269  INFO Injector:96 
2024-11-08T17:17:19,269  INFO Injector:85 org.matsim.vehicles.Vehicles 
2024-11-08T17:17:19,269  INFO Injector:86   --> provider: @Provides org.matsim.core.scenario.ScenarioByInstanceModule.provideVehicles(ScenarioByInstanceModule.java:82)
2024-11-08T17:17:19,269  INFO Injector:87   --> source: org.matsim.vehicles.Vehicles org.matsim.core.scenario.ScenarioByInstanceModule.provideVehicles(org.matsim.api.core.v01.Scenario)
2024-11-08T17:17:19,269  INFO Injector:89   --> scope: Scopes.NO_SCOPE
2024-11-08T17:17:19,269  INFO Injector:94   ==full==> ProviderInstanceBinding{key=Key[type=org.matsim.vehicles.Vehicles, annotation=[none]], source=org.matsim.vehicles.Vehicles org.matsim.core.scenario.ScenarioByInstanceModule.provideVehicles(org.matsim.api.core.v01.Scenario), scope=Scopes.NO_SCOPE, provider=@Provides org.matsim.core.scenario.ScenarioByInstanceModule.provideVehicles(ScenarioByInstanceModule.java:82)}
2024-11-08T17:17:19,269  INFO Injector:96 
2024-11-08T17:17:19,269  INFO Injector:85 org.matsim.core.controler.ControlerI 
2024-11-08T17:17:19,269  INFO Injector:86   --> provider: FactoryProxy{key=Key[type=org.matsim.core.controler.ControlerI, annotation=[none]], provider=com.google.inject.internal.ConstructorBindingImpl$Factory@1d3c6f8d}[Scopes.SINGLETON]
2024-11-08T17:17:19,270  INFO Injector:87   --> source: org.matsim.core.controler.NewControlerModule.install(NewControlerModule.java:30)
2024-11-08T17:17:19,270  INFO Injector:89   --> scope: eager singleton
2024-11-08T17:17:19,270  INFO Injector:92   --> target: Key[type=org.matsim.core.controler.NewControler, annotation=[none]]
2024-11-08T17:17:19,270  INFO Injector:94   ==full==> LinkedKeyBinding{key=Key[type=org.matsim.core.controler.ControlerI, annotation=[none]], source=org.matsim.core.controler.NewControlerModule.install(NewControlerModule.java:30), scope=eager singleton, target=Key[type=org.matsim.core.controler.NewControler, annotation=[none]]}
2024-11-08T17:17:19,270  INFO Injector:96 
2024-11-08T17:17:19,270  INFO Injector:85 org.matsim.core.controler.ControlerListenerManager 
2024-11-08T17:17:19,270  INFO Injector:86   --> provider: FactoryProxy{key=Key[type=org.matsim.core.controler.ControlerListenerManager, annotation=[none]], provider=com.google.inject.internal.ConstructorBindingImpl$Factory@6dc774ed[Scopes.SINGLETON]}
2024-11-08T17:17:19,270  INFO Injector:87   --> source: org.matsim.core.controler.NewControlerModule.install(NewControlerModule.java:32)
2024-11-08T17:17:19,270  INFO Injector:89   --> scope: Scopes.NO_SCOPE
2024-11-08T17:17:19,270  INFO Injector:92   --> target: Key[type=org.matsim.core.controler.ControlerListenerManagerImpl, annotation=[none]]
2024-11-08T17:17:19,270  INFO Injector:94   ==full==> LinkedKeyBinding{key=Key[type=org.matsim.core.controler.ControlerListenerManager, annotation=[none]], source=org.matsim.core.controler.NewControlerModule.install(NewControlerModule.java:32), scope=Scopes.NO_SCOPE, target=Key[type=org.matsim.core.controler.ControlerListenerManagerImpl, annotation=[none]]}
2024-11-08T17:17:19,270  INFO Injector:96 
2024-11-08T17:17:19,270  INFO Injector:85 org.matsim.core.controler.TerminationCriterion 
2024-11-08T17:17:19,270  INFO Injector:86   --> provider: FactoryProxy{key=Key[type=org.matsim.core.controler.TerminationCriterion, annotation=[none]], provider=com.google.inject.internal.ConstructorBindingImpl$Factory@1112614e}
2024-11-08T17:17:19,270  INFO Injector:87   --> source: org.matsim.core.controler.NewControlerModule.install(NewControlerModule.java:36)
2024-11-08T17:17:19,270  INFO Injector:89   --> scope: Scopes.NO_SCOPE
2024-11-08T17:17:19,270  INFO Injector:92   --> target: Key[type=org.matsim.core.controler.TerminateAtFixedIterationNumber, annotation=[none]]
2024-11-08T17:17:19,270  INFO Injector:94   ==full==> LinkedKeyBinding{key=Key[type=org.matsim.core.controler.TerminationCriterion, annotation=[none]], source=org.matsim.core.controler.NewControlerModule.install(NewControlerModule.java:36), scope=Scopes.NO_SCOPE, target=Key[type=org.matsim.core.controler.TerminateAtFixedIterationNumber, annotation=[none]]}
2024-11-08T17:17:19,271  INFO Injector:96 
2024-11-08T17:17:19,271  INFO Injector:85 org.matsim.core.controler.MatsimServices 
2024-11-08T17:17:19,271  INFO Injector:86   --> provider: FactoryProxy{key=Key[type=org.matsim.core.controler.MatsimServices, annotation=[none]], provider=com.google.inject.internal.ConstructorBindingImpl$Factory@7f308890}
2024-11-08T17:17:19,271  INFO Injector:87   --> source: org.matsim.core.controler.NewControlerModule.install(NewControlerModule.java:37)
2024-11-08T17:17:19,271  INFO Injector:89   --> scope: Scopes.NO_SCOPE
2024-11-08T17:17:19,271  INFO Injector:92   --> target: Key[type=org.matsim.core.controler.MatsimServicesImpl, annotation=[none]]
2024-11-08T17:17:19,271  INFO Injector:94   ==full==> LinkedKeyBinding{key=Key[type=org.matsim.core.controler.MatsimServices, annotation=[none]], source=org.matsim.core.controler.NewControlerModule.install(NewControlerModule.java:37), scope=Scopes.NO_SCOPE, target=Key[type=org.matsim.core.controler.MatsimServicesImpl, annotation=[none]]}
2024-11-08T17:17:19,271  INFO Injector:96 
2024-11-08T17:17:19,271  INFO Injector:85 org.matsim.core.controler.IterationCounter 
2024-11-08T17:17:19,271  INFO Injector:86   --> provider: FactoryProxy{key=Key[type=org.matsim.core.controler.IterationCounter, annotation=[none]], provider=com.google.inject.internal.ConstructorBindingImpl$Factory@7f308890}
2024-11-08T17:17:19,271  INFO Injector:87   --> source: org.matsim.core.controler.NewControlerModule.install(NewControlerModule.java:39)
2024-11-08T17:17:19,271  INFO Injector:89   --> scope: Scopes.NO_SCOPE
2024-11-08T17:17:19,271  INFO Injector:92   --> target: Key[type=org.matsim.core.controler.MatsimServicesImpl, annotation=[none]]
2024-11-08T17:17:19,271  INFO Injector:94   ==full==> LinkedKeyBinding{key=Key[type=org.matsim.core.controler.IterationCounter, annotation=[none]], source=org.matsim.core.controler.NewControlerModule.install(NewControlerModule.java:39), scope=Scopes.NO_SCOPE, target=Key[type=org.matsim.core.controler.MatsimServicesImpl, annotation=[none]]}
2024-11-08T17:17:19,271  INFO Injector:96 
2024-11-08T17:17:19,271  INFO Injector:85 org.matsim.core.controler.PrepareForSim 
2024-11-08T17:17:19,271  INFO Injector:86   --> provider: FactoryProxy{key=Key[type=org.matsim.core.controler.PrepareForSim, annotation=[none]], provider=com.google.inject.internal.ConstructorBindingImpl$Factory@18ec0fc}
2024-11-08T17:17:19,271  INFO Injector:87   --> source: org.matsim.core.controler.NewControlerModule.install(NewControlerModule.java:43)
2024-11-08T17:17:19,271  INFO Injector:89   --> scope: Scopes.NO_SCOPE
2024-11-08T17:17:19,272  INFO Injector:92   --> target: Key[type=org.matsim.core.controler.PrepareForSimImpl, annotation=[none]]
2024-11-08T17:17:19,272  INFO Injector:94   ==full==> LinkedKeyBinding{key=Key[type=org.matsim.core.controler.PrepareForSim, annotation=[none]], source=org.matsim.core.controler.NewControlerModule.install(NewControlerModule.java:43), scope=Scopes.NO_SCOPE, target=Key[type=org.matsim.core.controler.PrepareForSimImpl, annotation=[none]]}
2024-11-08T17:17:19,272  INFO Injector:96 
2024-11-08T17:17:19,272  INFO Injector:85 org.matsim.core.controler.PrepareForMobsim 
2024-11-08T17:17:19,272  INFO Injector:86   --> provider: FactoryProxy{key=Key[type=org.matsim.core.controler.PrepareForMobsim, annotation=[none]], provider=com.google.inject.internal.ConstructorBindingImpl$Factory@57b8ac3c}
2024-11-08T17:17:19,272  INFO Injector:87   --> source: org.matsim.core.controler.NewControlerModule.install(NewControlerModule.java:44)
2024-11-08T17:17:19,272  INFO Injector:89   --> scope: Scopes.NO_SCOPE
2024-11-08T17:17:19,272  INFO Injector:92   --> target: Key[type=org.matsim.core.controler.PrepareForMobsimImpl, annotation=[none]]
2024-11-08T17:17:19,272  INFO Injector:94   ==full==> LinkedKeyBinding{key=Key[type=org.matsim.core.controler.PrepareForMobsim, annotation=[none]], source=org.matsim.core.controler.NewControlerModule.install(NewControlerModule.java:44), scope=Scopes.NO_SCOPE, target=Key[type=org.matsim.core.controler.PrepareForMobsimImpl, annotation=[none]]}
2024-11-08T17:17:19,272  INFO Injector:96 
2024-11-08T17:17:19,272  INFO Injector:85 org.matsim.core.controler.corelisteners.PlansScoring 
2024-11-08T17:17:19,272  INFO Injector:86   --> provider: FactoryProxy{key=Key[type=org.matsim.core.controler.corelisteners.PlansScoring, annotation=[none]], provider=com.google.inject.internal.ConstructorBindingImpl$Factory@5522bf94[Scopes.SINGLETON]}
2024-11-08T17:17:19,272  INFO Injector:87   --> source: org.matsim.core.scoring.PlansScoringModule.install(PlansScoringModule.java:33)
2024-11-08T17:17:19,272  INFO Injector:89   --> scope: Scopes.NO_SCOPE
2024-11-08T17:17:19,272  INFO Injector:92   --> target: Key[type=org.matsim.core.scoring.PlansScoringImpl, annotation=[none]]
2024-11-08T17:17:19,272  INFO Injector:94   ==full==> LinkedKeyBinding{key=Key[type=org.matsim.core.controler.corelisteners.PlansScoring, annotation=[none]], source=org.matsim.core.scoring.PlansScoringModule.install(PlansScoringModule.java:33), scope=Scopes.NO_SCOPE, target=Key[type=org.matsim.core.scoring.PlansScoringImpl, annotation=[none]]}
2024-11-08T17:17:19,272  INFO Injector:96 
2024-11-08T17:17:19,272  INFO Injector:85 org.matsim.core.scoring.ExperiencedPlansService 
2024-11-08T17:17:19,272  INFO Injector:86   --> provider: FactoryProxy{key=Key[type=org.matsim.core.scoring.ExperiencedPlansService, annotation=[none]], provider=com.google.inject.internal.ConstructorBindingImpl$Factory@2eadc9a8}[Scopes.SINGLETON]
2024-11-08T17:17:19,272  INFO Injector:87   --> source: org.matsim.core.scoring.PlansScoringModule.install(PlansScoringModule.java:34)
2024-11-08T17:17:19,272  INFO Injector:89   --> scope: eager singleton
2024-11-08T17:17:19,272  INFO Injector:92   --> target: Key[type=org.matsim.core.scoring.ExperiencedPlansServiceImpl, annotation=[none]]
2024-11-08T17:17:19,272  INFO Injector:94   ==full==> LinkedKeyBinding{key=Key[type=org.matsim.core.scoring.ExperiencedPlansService, annotation=[none]], source=org.matsim.core.scoring.PlansScoringModule.install(PlansScoringModule.java:34), scope=eager singleton, target=Key[type=org.matsim.core.scoring.ExperiencedPlansServiceImpl, annotation=[none]]}
2024-11-08T17:17:19,272  INFO Injector:96 
2024-11-08T17:17:19,272  INFO Injector:85 org.matsim.core.scoring.NewScoreAssigner 
2024-11-08T17:17:19,272  INFO Injector:86   --> provider: FactoryProxy{key=Key[type=org.matsim.core.scoring.NewScoreAssigner, annotation=[none]], provider=com.google.inject.internal.ConstructorBindingImpl$Factory@59d375a1}[Scopes.SINGLETON]
2024-11-08T17:17:19,272  INFO Injector:87   --> source: org.matsim.core.scoring.PlansScoringModule.install(PlansScoringModule.java:35)
2024-11-08T17:17:19,272  INFO Injector:89   --> scope: eager singleton
2024-11-08T17:17:19,272  INFO Injector:92   --> target: Key[type=org.matsim.core.scoring.NewScoreAssignerImpl, annotation=[none]]
2024-11-08T17:17:19,273  INFO Injector:94   ==full==> LinkedKeyBinding{key=Key[type=org.matsim.core.scoring.NewScoreAssigner, annotation=[none]], source=org.matsim.core.scoring.PlansScoringModule.install(PlansScoringModule.java:35), scope=eager singleton, target=Key[type=org.matsim.core.scoring.NewScoreAssignerImpl, annotation=[none]]}
2024-11-08T17:17:19,273  INFO Injector:96 
2024-11-08T17:17:19,273  INFO Injector:85 org.matsim.core.controler.corelisteners.PlansReplanning 
2024-11-08T17:17:19,273  INFO Injector:86   --> provider: FactoryProxy{key=Key[type=org.matsim.core.controler.corelisteners.PlansReplanning, annotation=[none]], provider=com.google.inject.internal.ConstructorBindingImpl$Factory@4b18ebeb[Scopes.SINGLETON]}
2024-11-08T17:17:19,273  INFO Injector:87   --> source: org.matsim.core.controler.corelisteners.ControlerDefaultCoreListenersModule.install(ControlerDefaultCoreListenersModule.java:38)
2024-11-08T17:17:19,273  INFO Injector:89   --> scope: Scopes.NO_SCOPE
2024-11-08T17:17:19,273  INFO Injector:92   --> target: Key[type=org.matsim.core.controler.corelisteners.PlansReplanningImpl, annotation=[none]]
2024-11-08T17:17:19,273  INFO Injector:94   ==full==> LinkedKeyBinding{key=Key[type=org.matsim.core.controler.corelisteners.PlansReplanning, annotation=[none]], source=org.matsim.core.controler.corelisteners.ControlerDefaultCoreListenersModule.install(ControlerDefaultCoreListenersModule.java:38), scope=Scopes.NO_SCOPE, target=Key[type=org.matsim.core.controler.corelisteners.PlansReplanningImpl, annotation=[none]]}
2024-11-08T17:17:19,273  INFO Injector:96 
2024-11-08T17:17:19,273  INFO Injector:85 org.matsim.core.controler.corelisteners.PlansDumping 
2024-11-08T17:17:19,273  INFO Injector:86   --> provider: FactoryProxy{key=Key[type=org.matsim.core.controler.corelisteners.PlansDumping, annotation=[none]], provider=com.google.inject.internal.ConstructorBindingImpl$Factory@b862303[Scopes.SINGLETON]}
2024-11-08T17:17:19,273  INFO Injector:87   --> source: org.matsim.core.controler.corelisteners.ControlerDefaultCoreListenersModule.install(ControlerDefaultCoreListenersModule.java:39)
2024-11-08T17:17:19,273  INFO Injector:89   --> scope: Scopes.NO_SCOPE
2024-11-08T17:17:19,273  INFO Injector:92   --> target: Key[type=org.matsim.core.controler.corelisteners.PlansDumpingImpl, annotation=[none]]
2024-11-08T17:17:19,273  INFO Injector:94   ==full==> LinkedKeyBinding{key=Key[type=org.matsim.core.controler.corelisteners.PlansDumping, annotation=[none]], source=org.matsim.core.controler.corelisteners.ControlerDefaultCoreListenersModule.install(ControlerDefaultCoreListenersModule.java:39), scope=Scopes.NO_SCOPE, target=Key[type=org.matsim.core.controler.corelisteners.PlansDumpingImpl, annotation=[none]]}
2024-11-08T17:17:19,273  INFO Injector:96 
2024-11-08T17:17:19,273  INFO Injector:85 org.matsim.core.controler.corelisteners.EventsHandling 
2024-11-08T17:17:19,273  INFO Injector:86   --> provider: FactoryProxy{key=Key[type=org.matsim.core.controler.corelisteners.EventsHandling, annotation=[none]], provider=com.google.inject.internal.ConstructorBindingImpl$Factory@4ba64b52[Scopes.SINGLETON]}
2024-11-08T17:17:19,273  INFO Injector:87   --> source: org.matsim.core.controler.corelisteners.ControlerDefaultCoreListenersModule.install(ControlerDefaultCoreListenersModule.java:40)
2024-11-08T17:17:19,273  INFO Injector:89   --> scope: Scopes.NO_SCOPE
2024-11-08T17:17:19,273  INFO Injector:92   --> target: Key[type=org.matsim.core.controler.corelisteners.EventsHandlingImpl, annotation=[none]]
2024-11-08T17:17:19,273  INFO Injector:94   ==full==> LinkedKeyBinding{key=Key[type=org.matsim.core.controler.corelisteners.EventsHandling, annotation=[none]], source=org.matsim.core.controler.corelisteners.ControlerDefaultCoreListenersModule.install(ControlerDefaultCoreListenersModule.java:40), scope=Scopes.NO_SCOPE, target=Key[type=org.matsim.core.controler.corelisteners.EventsHandlingImpl, annotation=[none]]}
2024-11-08T17:17:19,273  INFO Injector:96 
2024-11-08T17:17:19,273  INFO Injector:85 org.matsim.core.controler.corelisteners.DumpDataAtEnd 
2024-11-08T17:17:19,274  INFO Injector:86   --> provider: FactoryProxy{key=Key[type=org.matsim.core.controler.corelisteners.DumpDataAtEnd, annotation=[none]], provider=com.google.inject.internal.ConstructorBindingImpl$Factory@91a51fa[Scopes.SINGLETON]}
2024-11-08T17:17:19,274  INFO Injector:87   --> source: org.matsim.core.controler.corelisteners.ControlerDefaultCoreListenersModule.install(ControlerDefaultCoreListenersModule.java:41)
2024-11-08T17:17:19,274  INFO Injector:89   --> scope: Scopes.NO_SCOPE
2024-11-08T17:17:19,274  INFO Injector:92   --> target: Key[type=org.matsim.core.controler.corelisteners.DumpDataAtEndImpl, annotation=[none]]
2024-11-08T17:17:19,274  INFO Injector:94   ==full==> LinkedKeyBinding{key=Key[type=org.matsim.core.controler.corelisteners.DumpDataAtEnd, annotation=[none]], source=org.matsim.core.controler.corelisteners.ControlerDefaultCoreListenersModule.install(ControlerDefaultCoreListenersModule.java:41), scope=Scopes.NO_SCOPE, target=Key[type=org.matsim.core.controler.corelisteners.DumpDataAtEndImpl, annotation=[none]]}
2024-11-08T17:17:19,274  INFO Injector:96 
2024-11-08T17:17:19,274  INFO Injector:85 org.matsim.core.api.experimental.events.EventsManager 
2024-11-08T17:17:19,274  INFO Injector:86   --> provider: FactoryProxy{key=Key[type=org.matsim.core.api.experimental.events.EventsManager, annotation=[none]], provider=com.google.inject.internal.ConstructorBindingImpl$Factory@5d1a481}[Scopes.SINGLETON]
2024-11-08T17:17:19,274  INFO Injector:87   --> source: org.matsim.core.events.EventsManagerModule.install(EventsManagerModule.java:46)
2024-11-08T17:17:19,274  INFO Injector:89   --> scope: Scopes.SINGLETON
2024-11-08T17:17:19,274  INFO Injector:92   --> target: Key[type=org.matsim.core.events.SimStepParallelEventsManagerImpl, annotation=[none]]
2024-11-08T17:17:19,274  INFO Injector:94   ==full==> LinkedKeyBinding{key=Key[type=org.matsim.core.api.experimental.events.EventsManager, annotation=[none]], source=org.matsim.core.events.EventsManagerModule.install(EventsManagerModule.java:46), scope=Scopes.SINGLETON, target=Key[type=org.matsim.core.events.SimStepParallelEventsManagerImpl, annotation=[none]]}
2024-11-08T17:17:19,274  INFO Injector:96 
2024-11-08T17:17:19,274  INFO Injector:85 org.matsim.core.mobsim.qsim.components.QSimComponentsConfig 
2024-11-08T17:17:19,274  INFO Injector:86   --> provider: @Provides org.matsim.core.mobsim.qsim.components.QSimComponentsModule.provideDefaultQSimComponentsConfig(QSimComponentsModule.java:34)[Scopes.SINGLETON]
2024-11-08T17:17:19,274  INFO Injector:87   --> source: public org.matsim.core.mobsim.qsim.components.QSimComponentsConfig org.matsim.core.mobsim.qsim.components.QSimComponentsModule.provideDefaultQSimComponentsConfig(org.matsim.core.config.Config)
2024-11-08T17:17:19,274  INFO Injector:89   --> scope: Scopes.SINGLETON
2024-11-08T17:17:19,274  INFO Injector:94   ==full==> ProviderInstanceBinding{key=Key[type=org.matsim.core.mobsim.qsim.components.QSimComponentsConfig, annotation=[none]], source=public org.matsim.core.mobsim.qsim.components.QSimComponentsConfig org.matsim.core.mobsim.qsim.components.QSimComponentsModule.provideDefaultQSimComponentsConfig(org.matsim.core.config.Config), scope=Scopes.SINGLETON, provider=@Provides org.matsim.core.mobsim.qsim.components.QSimComponentsModule.provideDefaultQSimComponentsConfig(QSimComponentsModule.java:34)}
2024-11-08T17:17:19,274  INFO Injector:96 
2024-11-08T17:17:19,275  INFO Injector:85 org.matsim.core.mobsim.qsim.AbstractQSimModule @com.google.inject.internal.Element(setName=,uniqueId=107, type=MULTIBINDER, keyType=)
2024-11-08T17:17:19,275  INFO Injector:86   --> provider: ConstantFactory{value=org.matsim.core.mobsim.qsim.messagequeueengine.MessageQueueModule@6585961}[Scopes.SINGLETON]
2024-11-08T17:17:19,275  INFO Injector:87   --> source: java.base/java.util.Arrays$ArrayList.forEach(Arrays.java:4305)
2024-11-08T17:17:19,275  INFO Injector:89   --> scope: eager singleton
2024-11-08T17:17:19,275  INFO Injector:94   ==full==> InstanceBinding{key=Key[type=org.matsim.core.mobsim.qsim.AbstractQSimModule, annotation=@com.google.inject.internal.Element(setName=,uniqueId=107, type=MULTIBINDER, keyType=)], source=java.base/java.util.Arrays$ArrayList.forEach(Arrays.java:4305), instance=org.matsim.core.mobsim.qsim.messagequeueengine.MessageQueueModule@6585961}
2024-11-08T17:17:19,275  INFO Injector:96 
2024-11-08T17:17:19,275  INFO Injector:85 org.matsim.core.mobsim.qsim.AbstractQSimModule @com.google.inject.internal.Element(setName=,uniqueId=108, type=MULTIBINDER, keyType=)
2024-11-08T17:17:19,275  INFO Injector:86   --> provider: ConstantFactory{value=org.matsim.core.mobsim.qsim.ActivityEngineModule@6896715b}[Scopes.SINGLETON]
2024-11-08T17:17:19,275  INFO Injector:87   --> source: java.base/java.util.Arrays$ArrayList.forEach(Arrays.java:4305)
2024-11-08T17:17:19,275  INFO Injector:89   --> scope: eager singleton
2024-11-08T17:17:19,275  INFO Injector:94   ==full==> InstanceBinding{key=Key[type=org.matsim.core.mobsim.qsim.AbstractQSimModule, annotation=@com.google.inject.internal.Element(setName=,uniqueId=108, type=MULTIBINDER, keyType=)], source=java.base/java.util.Arrays$ArrayList.forEach(Arrays.java:4305), instance=org.matsim.core.mobsim.qsim.ActivityEngineModule@6896715b}
2024-11-08T17:17:19,275  INFO Injector:96 
2024-11-08T17:17:19,275  INFO Injector:85 org.matsim.core.mobsim.qsim.AbstractQSimModule @com.google.inject.internal.Element(setName=,uniqueId=109, type=MULTIBINDER, keyType=)
2024-11-08T17:17:19,275  INFO Injector:86   --> provider: ConstantFactory{value=org.matsim.core.mobsim.qsim.qnetsimengine.QNetsimEngineModule@47c12e47}[Scopes.SINGLETON]
2024-11-08T17:17:19,275  INFO Injector:87   --> source: java.base/java.util.Arrays$ArrayList.forEach(Arrays.java:4305)
2024-11-08T17:17:19,276  INFO Injector:89   --> scope: eager singleton
2024-11-08T17:17:19,276  INFO Injector:94   ==full==> InstanceBinding{key=Key[type=org.matsim.core.mobsim.qsim.AbstractQSimModule, annotation=@com.google.inject.internal.Element(setName=,uniqueId=109, type=MULTIBINDER, keyType=)], source=java.base/java.util.Arrays$ArrayList.forEach(Arrays.java:4305), instance=org.matsim.core.mobsim.qsim.qnetsimengine.QNetsimEngineModule@47c12e47}
2024-11-08T17:17:19,276  INFO Injector:96 
2024-11-08T17:17:19,276  INFO Injector:85 org.matsim.core.mobsim.qsim.AbstractQSimModule @com.google.inject.internal.Element(setName=,uniqueId=110, type=MULTIBINDER, keyType=)
2024-11-08T17:17:19,276  INFO Injector:86   --> provider: ConstantFactory{value=org.matsim.core.mobsim.qsim.TeleportationModule@4076aed}[Scopes.SINGLETON]
2024-11-08T17:17:19,276  INFO Injector:87   --> source: java.base/java.util.Arrays$ArrayList.forEach(Arrays.java:4305)
2024-11-08T17:17:19,276  INFO Injector:89   --> scope: eager singleton
2024-11-08T17:17:19,276  INFO Injector:94   ==full==> InstanceBinding{key=Key[type=org.matsim.core.mobsim.qsim.AbstractQSimModule, annotation=@com.google.inject.internal.Element(setName=,uniqueId=110, type=MULTIBINDER, keyType=)], source=java.base/java.util.Arrays$ArrayList.forEach(Arrays.java:4305), instance=org.matsim.core.mobsim.qsim.TeleportationModule@4076aed}
2024-11-08T17:17:19,276  INFO Injector:96 
2024-11-08T17:17:19,276  INFO Injector:85 org.matsim.core.mobsim.qsim.AbstractQSimModule @com.google.inject.internal.Element(setName=,uniqueId=111, type=MULTIBINDER, keyType=)
2024-11-08T17:17:19,276  INFO Injector:86   --> provider: ConstantFactory{value=org.matsim.core.mobsim.qsim.PopulationModule@4050a85d}[Scopes.SINGLETON]
2024-11-08T17:17:19,276  INFO Injector:87   --> source: java.base/java.util.Arrays$ArrayList.forEach(Arrays.java:4305)
2024-11-08T17:17:19,276  INFO Injector:89   --> scope: eager singleton
2024-11-08T17:17:19,276  INFO Injector:94   ==full==> InstanceBinding{key=Key[type=org.matsim.core.mobsim.qsim.AbstractQSimModule, annotation=@com.google.inject.internal.Element(setName=,uniqueId=111, type=MULTIBINDER, keyType=)], source=java.base/java.util.Arrays$ArrayList.forEach(Arrays.java:4305), instance=org.matsim.core.mobsim.qsim.PopulationModule@4050a85d}
2024-11-08T17:17:19,276  INFO Injector:96 
2024-11-08T17:17:19,276  INFO Injector:85 org.matsim.core.mobsim.qsim.AbstractQSimModule @com.google.inject.internal.Element(setName=,uniqueId=112, type=MULTIBINDER, keyType=)
2024-11-08T17:17:19,276  INFO Injector:86   --> provider: ConstantFactory{value=org.matsim.core.mobsim.qsim.changeeventsengine.NetworkChangeEventsModule@1b9705a5}[Scopes.SINGLETON]
2024-11-08T17:17:19,276  INFO Injector:87   --> source: java.base/java.util.Arrays$ArrayList.forEach(Arrays.java:4305)
2024-11-08T17:17:19,276  INFO Injector:89   --> scope: eager singleton
2024-11-08T17:17:19,276  INFO Injector:94   ==full==> InstanceBinding{key=Key[type=org.matsim.core.mobsim.qsim.AbstractQSimModule, annotation=@com.google.inject.internal.Element(setName=,uniqueId=112, type=MULTIBINDER, keyType=)], source=java.base/java.util.Arrays$ArrayList.forEach(Arrays.java:4305), instance=org.matsim.core.mobsim.qsim.changeeventsengine.NetworkChangeEventsModule@1b9705a5}
2024-11-08T17:17:19,276  INFO Injector:96 
2024-11-08T17:17:19,276  INFO Injector:85 org.matsim.core.mobsim.qsim.AbstractQSimModule @com.google.inject.internal.Element(setName=,uniqueId=113, type=MULTIBINDER, keyType=)
2024-11-08T17:17:19,277  INFO Injector:86   --> provider: ConstantFactory{value=org.matsim.core.mobsim.qsim.pt.TransitEngineModule@556aa386}[Scopes.SINGLETON]
2024-11-08T17:17:19,277  INFO Injector:87   --> source: java.base/java.util.Arrays$ArrayList.forEach(Arrays.java:4305)
2024-11-08T17:17:19,277  INFO Injector:89   --> scope: eager singleton
2024-11-08T17:17:19,277  INFO Injector:94   ==full==> InstanceBinding{key=Key[type=org.matsim.core.mobsim.qsim.AbstractQSimModule, annotation=@com.google.inject.internal.Element(setName=,uniqueId=113, type=MULTIBINDER, keyType=)], source=java.base/java.util.Arrays$ArrayList.forEach(Arrays.java:4305), instance=org.matsim.core.mobsim.qsim.pt.TransitEngineModule@556aa386}
2024-11-08T17:17:19,277  INFO Injector:96 
2024-11-08T17:17:19,277  INFO Injector:85 org.matsim.core.mobsim.framework.Mobsim 
2024-11-08T17:17:19,277  INFO Injector:86   --> provider: Key[type=org.matsim.core.mobsim.qsim.QSimProvider, annotation=[none]]
2024-11-08T17:17:19,277  INFO Injector:87   --> source: org.matsim.core.mobsim.qsim.QSimModule.install(QSimModule.java:100)
2024-11-08T17:17:19,277  INFO Injector:89   --> scope: Scopes.NO_SCOPE
2024-11-08T17:17:19,277  INFO Injector:94   ==full==> ProviderKeyBinding{key=Key[type=org.matsim.core.mobsim.framework.Mobsim, annotation=[none]], source=org.matsim.core.mobsim.qsim.QSimModule.install(QSimModule.java:100), scope=Scopes.NO_SCOPE, provider=Key[type=org.matsim.core.mobsim.qsim.QSimProvider, annotation=[none]]}
2024-11-08T17:17:19,277  INFO Injector:96 
2024-11-08T17:17:19,277  INFO Injector:85 org.matsim.core.controler.listener.ControlerListener @com.google.inject.internal.Element(setName=,uniqueId=114, type=MULTIBINDER, keyType=)
2024-11-08T17:17:19,277  INFO Injector:86   --> provider: FactoryProxy{key=Key[type=org.matsim.core.controler.listener.ControlerListener, annotation=@com.google.inject.internal.Element(setName=,uniqueId=114, type=MULTIBINDER, keyType=)], provider=com.google.inject.internal.ConstructorBindingImpl$Factory@1d3e3dd1[Scopes.SINGLETON]}
2024-11-08T17:17:19,277  INFO Injector:87   --> source: org.matsim.core.events.MobsimScopeEventHandlingModule.install(MobsimScopeEventHandlingModule.java:39)
2024-11-08T17:17:19,277  INFO Injector:89   --> scope: Scopes.NO_SCOPE
2024-11-08T17:17:19,277  INFO Injector:92   --> target: Key[type=org.matsim.core.events.MobsimScopeEventHandling, annotation=[none]]
2024-11-08T17:17:19,277  INFO Injector:94   ==full==> LinkedKeyBinding{key=Key[type=org.matsim.core.controler.listener.ControlerListener, annotation=@com.google.inject.internal.Element(setName=,uniqueId=114, type=MULTIBINDER, keyType=)], source=org.matsim.core.events.MobsimScopeEventHandlingModule.install(MobsimScopeEventHandlingModule.java:39), scope=Scopes.NO_SCOPE, target=Key[type=org.matsim.core.events.MobsimScopeEventHandling, annotation=[none]]}
2024-11-08T17:17:19,277  INFO Injector:96 
2024-11-08T17:17:19,277  INFO Injector:85 org.matsim.core.mobsim.qsim.AbstractQSimModule @com.google.inject.internal.Element(setName=,uniqueId=115, type=MULTIBINDER, keyType=)
2024-11-08T17:17:19,277  INFO Injector:86   --> provider: ConstantFactory{value=org.matsim.core.events.MobsimScopeEventHandlingModule$1@6a05fbc4}[Scopes.SINGLETON]
2024-11-08T17:17:19,277  INFO Injector:87   --> source: org.matsim.core.events.MobsimScopeEventHandlingModule.install(MobsimScopeEventHandlingModule.java:41)
2024-11-08T17:17:19,277  INFO Injector:89   --> scope: eager singleton
2024-11-08T17:17:19,277  INFO Injector:94   ==full==> InstanceBinding{key=Key[type=org.matsim.core.mobsim.qsim.AbstractQSimModule, annotation=@com.google.inject.internal.Element(setName=,uniqueId=115, type=MULTIBINDER, keyType=)], source=org.matsim.core.events.MobsimScopeEventHandlingModule.install(MobsimScopeEventHandlingModule.java:41), instance=org.matsim.core.events.MobsimScopeEventHandlingModule$1@6a05fbc4}
2024-11-08T17:17:19,277  INFO Injector:96 
2024-11-08T17:17:19,278  INFO Injector:85 org.matsim.core.trafficmonitoring.TravelTimeCalculator @com.google.inject.name.Named("car")
2024-11-08T17:17:19,278  INFO Injector:86   --> provider: org.matsim.core.trafficmonitoring.TravelTimeCalculatorModule$SingleModeTravelTimeCalculatorProvider@238ab31d[Scopes.SINGLETON]
[...]
[WARNING] thread Thread[#795,ForkJoinPool.commonPool-worker-388,5,org.matsim.contrib.ev.example.RunEvExampleWithEvScoring] will linger despite being asked to die via interruption
[WARNING] thread Thread[#804,ForkJoinPool.commonPool-worker-389,5,org.matsim.contrib.ev.example.RunEvExampleWithEvScoring] will linger despite being asked to die via interruption
[WARNING] thread Thread[#806,ForkJoinPool.commonPool-worker-391,5,org.matsim.contrib.ev.example.RunEvExampleWithEvScoring] will linger despite being asked to die via interruption
[WARNING] thread Thread[#824,ForkJoinPool.commonPool-worker-401,5,org.matsim.contrib.ev.example.RunEvExampleWithEvScoring] will linger despite being asked to die via interruption
[WARNING] thread Thread[#840,ForkJoinPool.commonPool-worker-411,5,org.matsim.contrib.ev.example.RunEvExampleWithEvScoring] will linger despite being asked to die via interruption
[WARNING] thread Thread[#843,ForkJoinPool.commonPool-worker-410,5,org.matsim.contrib.ev.example.RunEvExampleWithEvScoring] will linger despite being asked to die via interruption
[WARNING] thread Thread[#841,ForkJoinPool.commonPool-worker-409,5,org.matsim.contrib.ev.example.RunEvExampleWithEvScoring] will linger despite being asked to die via interruption
[WARNING] thread Thread[#863,ForkJoinPool.commonPool-worker-424,5,org.matsim.contrib.ev.example.RunEvExampleWithEvScoring] will linger despite being asked to die via interruption
[WARNING] thread Thread[#865,ForkJoinPool.commonPool-worker-425,5,org.matsim.contrib.ev.example.RunEvExampleWithEvScoring] will linger despite being asked to die via interruption
[WARNING] thread Thread[#878,ForkJoinPool.commonPool-worker-436,5,org.matsim.contrib.ev.example.RunEvExampleWithEvScoring] will linger despite being asked to die via interruption
[WARNING] thread Thread[#881,ForkJoinPool.commonPool-worker-435,5,org.matsim.contrib.ev.example.RunEvExampleWithEvScoring] will linger despite being asked to die via interruption
[WARNING] thread Thread[#880,ForkJoinPool.commonPool-worker-434,5,org.matsim.contrib.ev.example.RunEvExampleWithEvScoring] will linger despite being asked to die via interruption
[WARNING] thread Thread[#898,ForkJoinPool.commonPool-worker-444,5,org.matsim.contrib.ev.example.RunEvExampleWithEvScoring] will linger despite being asked to die via interruption
[WARNING] thread Thread[#896,ForkJoinPool.commonPool-worker-442,5,org.matsim.contrib.ev.example.RunEvExampleWithEvScoring] will linger despite being asked to die via interruption
[WARNING] thread Thread[#903,ForkJoinPool.commonPool-worker-449,5,org.matsim.contrib.ev.example.RunEvExampleWithEvScoring] will linger despite being asked to die via interruption
[WARNING] thread Thread[#919,ForkJoinPool.commonPool-worker-454,5,org.matsim.contrib.ev.example.RunEvExampleWithEvScoring] will linger despite being asked to die via interruption
[WARNING] thread Thread[#917,ForkJoinPool.commonPool-worker-453,5,org.matsim.contrib.ev.example.RunEvExampleWithEvScoring] will linger despite being asked to die via interruption
[WARNING] thread Thread[#918,ForkJoinPool.commonPool-worker-451,5,org.matsim.contrib.ev.example.RunEvExampleWithEvScoring] will linger despite being asked to die via interruption
[WARNING] thread Thread[#913,ForkJoinPool.commonPool-worker-450,5,org.matsim.contrib.ev.example.RunEvExampleWithEvScoring] will linger despite being asked to die via interruption
[WARNING] thread Thread[#932,ForkJoinPool.commonPool-worker-462,5,org.matsim.contrib.ev.example.RunEvExampleWithEvScoring] will linger despite being asked to die via interruption
[WARNING] thread Thread[#937,ForkJoinPool.commonPool-worker-466,5,org.matsim.contrib.ev.example.RunEvExampleWithEvScoring] will linger despite being asked to die via interruption
[WARNING] thread Thread[#939,ForkJoinPool.commonPool-worker-469,5,org.matsim.contrib.ev.example.RunEvExampleWithEvScoring] will linger despite being asked to die via interruption
[WARNING] thread Thread[#957,ForkJoinPool.commonPool-worker-478,5,org.matsim.contrib.ev.example.RunEvExampleWithEvScoring] will linger despite being asked to die via interruption
[WARNING] thread Thread[#955,ForkJoinPool.commonPool-worker-475,5,org.matsim.contrib.ev.example.RunEvExampleWithEvScoring] will linger despite being asked to die via interruption
[WARNING] thread Thread[#975,ForkJoinPool.commonPool-worker-485,5,org.matsim.contrib.ev.example.RunEvExampleWithEvScoring] will linger despite being asked to die via interruption
[WARNING] thread Thread[#968,ForkJoinPool.commonPool-worker-481,5,org.matsim.contrib.ev.example.RunEvExampleWithEvScoring] will linger despite being asked to die via interruption
[WARNING] thread Thread[#972,ForkJoinPool.commonPool-worker-487,5,org.matsim.contrib.ev.example.RunEvExampleWithEvScoring] will linger despite being asked to die via interruption
[WARNING] thread Thread[#969,ForkJoinPool.commonPool-worker-479,5,org.matsim.contrib.ev.example.RunEvExampleWithEvScoring] will linger despite being asked to die via interruption
[WARNING] thread Thread[#970,ForkJoinPool.commonPool-worker-480,5,org.matsim.contrib.ev.example.RunEvExampleWithEvScoring] will linger despite being asked to die via interruption
[WARNING] thread Thread[#988,ForkJoinPool.commonPool-worker-495,5,org.matsim.contrib.ev.example.RunEvExampleWithEvScoring] will linger despite being asked to die via interruption
[WARNING] thread Thread[#989,ForkJoinPool.commonPool-worker-493,5,org.matsim.contrib.ev.example.RunEvExampleWithEvScoring] will linger despite being asked to die via interruption
[WARNING] thread Thread[#992,ForkJoinPool.commonPool-worker-497,5,org.matsim.contrib.ev.example.RunEvExampleWithEvScoring] will linger despite being asked to die via interruption
[WARNING] thread Thread[#993,ForkJoinPool.commonPool-worker-496,5,org.matsim.contrib.ev.example.RunEvExampleWithEvScoring] will linger despite being asked to die via interruption
[WARNING] thread Thread[#1004,ForkJoinPool.commonPool-worker-501,5,org.matsim.contrib.ev.example.RunEvExampleWithEvScoring] will linger despite being asked to die via interruption
[WARNING] thread Thread[#1003,ForkJoinPool.commonPool-worker-505,5,org.matsim.contrib.ev.example.RunEvExampleWithEvScoring] will linger despite being asked to die via interruption
[WARNING] thread Thread[#1007,ForkJoinPool.commonPool-worker-502,5,org.matsim.contrib.ev.example.RunEvExampleWithEvScoring] will linger despite being asked to die via interruption
[WARNING] thread Thread[#1012,ForkJoinPool.commonPool-worker-509,5,org.matsim.contrib.ev.example.RunEvExampleWithEvScoring] will linger despite being asked to die via interruption
[WARNING] thread Thread[#1021,ForkJoinPool.commonPool-worker-512,5,org.matsim.contrib.ev.example.RunEvExampleWithEvScoring] will linger despite being asked to die via interruption
[WARNING] thread Thread[#1024,ForkJoinPool.commonPool-worker-513,5,org.matsim.contrib.ev.example.RunEvExampleWithEvScoring] will linger despite being asked to die via interruption
[WARNING] thread Thread[#1026,ForkJoinPool.commonPool-worker-515,5,org.matsim.contrib.ev.example.RunEvExampleWithEvScoring] will linger despite being asked to die via interruption
[WARNING] thread Thread[#1025,ForkJoinPool.commonPool-worker-514,5,org.matsim.contrib.ev.example.RunEvExampleWithEvScoring] will linger despite being asked to die via interruption
[WARNING] thread Thread[#1027,ForkJoinPool.commonPool-worker-517,5,org.matsim.contrib.ev.example.RunEvExampleWithEvScoring] will linger despite being asked to die via interruption
[WARNING] thread Thread[#1028,ForkJoinPool.commonPool-worker-516,5,org.matsim.contrib.ev.example.RunEvExampleWithEvScoring] will linger despite being asked to die via interruption
[WARNING] thread Thread[#1029,ForkJoinPool.commonPool-worker-518,5,org.matsim.contrib.ev.example.RunEvExampleWithEvScoring] will linger despite being asked to die via interruption
[WARNING] thread Thread[#1042,ForkJoinPool.commonPool-worker-523,5,org.matsim.contrib.ev.example.RunEvExampleWithEvScoring] will linger despite being asked to die via interruption
[WARNING] thread Thread[#1041,ForkJoinPool.commonPool-worker-522,5,org.matsim.contrib.ev.example.RunEvExampleWithEvScoring] will linger despite being asked to die via interruption
[WARNING] thread Thread[#1040,ForkJoinPool.commonPool-worker-521,5,org.matsim.contrib.ev.example.RunEvExampleWithEvScoring] will linger despite being asked to die via interruption
[WARNING] thread Thread[#1045,ForkJoinPool.commonPool-worker-525,5,org.matsim.contrib.ev.example.RunEvExampleWithEvScoring] will linger despite being asked to die via interruption
[WARNING] thread Thread[#1046,ForkJoinPool.commonPool-worker-526,5,org.matsim.contrib.ev.example.RunEvExampleWithEvScoring] will linger despite being asked to die via interruption
[WARNING] thread Thread[#1059,ForkJoinPool.commonPool-worker-532,5,org.matsim.contrib.ev.example.RunEvExampleWithEvScoring] will linger despite being asked to die via interruption
[WARNING] thread Thread[#1062,ForkJoinPool.commonPool-worker-535,5,org.matsim.contrib.ev.example.RunEvExampleWithEvScoring] will linger despite being asked to die via interruption
[WARNING] thread Thread[#1063,ForkJoinPool.commonPool-worker-536,5,org.matsim.contrib.ev.example.RunEvExampleWithEvScoring] will linger despite being asked to die via interruption
[WARNING] thread Thread[#1060,ForkJoinPool.commonPool-worker-533,5,org.matsim.contrib.ev.example.RunEvExampleWithEvScoring] will linger despite being asked to die via interruption
[WARNING] thread Thread[#1066,ForkJoinPool.commonPool-worker-537,5,org.matsim.contrib.ev.example.RunEvExampleWithEvScoring] will linger despite being asked to die via interruption
[WARNING] thread Thread[#1079,ForkJoinPool.commonPool-worker-545,5,org.matsim.contrib.ev.example.RunEvExampleWithEvScoring] will linger despite being asked to die via interruption
[WARNING] thread Thread[#1076,ForkJoinPool.commonPool-worker-542,5,org.matsim.contrib.ev.example.RunEvExampleWithEvScoring] will linger despite being asked to die via interruption
[WARNING] thread Thread[#1083,ForkJoinPool.commonPool-worker-548,5,org.matsim.contrib.ev.example.RunEvExampleWithEvScoring] will linger despite being asked to die via interruption
[WARNING] thread Thread[#1080,ForkJoinPool.commonPool-worker-541,5,org.matsim.contrib.ev.example.RunEvExampleWithEvScoring] will linger despite being asked to die via interruption
[WARNING] thread Thread[#1095,ForkJoinPool.commonPool-worker-552,5,org.matsim.contrib.ev.example.RunEvExampleWithEvScoring] will linger despite being asked to die via interruption
[WARNING] thread Thread[#1094,ForkJoinPool.commonPool-worker-551,5,org.matsim.contrib.ev.example.RunEvExampleWithEvScoring] will linger despite being asked to die via interruption
[WARNING] thread Thread[#1100,ForkJoinPool.commonPool-worker-558,5,org.matsim.contrib.ev.example.RunEvExampleWithEvScoring] will linger despite being asked to die via interruption
[WARNING] thread Thread[#1098,ForkJoinPool.commonPool-worker-553,5,org.matsim.contrib.ev.example.RunEvExampleWithEvScoring] will linger despite being asked to die via interruption
[WARNING] thread Thread[#1096,ForkJoinPool.commonPool-worker-554,5,org.matsim.contrib.ev.example.RunEvExampleWithEvScoring] will linger despite being asked to die via interruption
[WARNING] thread Thread[#1097,ForkJoinPool.commonPool-worker-556,5,org.matsim.contrib.ev.example.RunEvExampleWithEvScoring] will linger despite being asked to die via interruption
[WARNING] thread Thread[#1115,ForkJoinPool.commonPool-worker-561,5,org.matsim.contrib.ev.example.RunEvExampleWithEvScoring] will linger despite being asked to die via interruption
[WARNING] thread Thread[#1113,ForkJoinPool.commonPool-worker-562,5,org.matsim.contrib.ev.example.RunEvExampleWithEvScoring] will linger despite being asked to die via interruption
[WARNING] thread Thread[#1117,ForkJoinPool.commonPool-worker-566,5,org.matsim.contrib.ev.example.RunEvExampleWithEvScoring] will linger despite being asked to die via interruption
[WARNING] thread Thread[#1114,ForkJoinPool.commonPool-worker-564,5,org.matsim.contrib.ev.example.RunEvExampleWithEvScoring] will linger despite being asked to die via interruption
[WARNING] thread Thread[#1110,ForkJoinPool.commonPool-worker-560,5,org.matsim.contrib.ev.example.RunEvExampleWithEvScoring] will linger despite being asked to die via interruption
[WARNING] thread Thread[#1111,ForkJoinPool.commonPool-worker-559,5,org.matsim.contrib.ev.example.RunEvExampleWithEvScoring] will linger despite being asked to die via interruption
[WARNING] thread Thread[#1119,ForkJoinPool.commonPool-worker-567,5,org.matsim.contrib.ev.example.RunEvExampleWithEvScoring] will linger despite being asked to die via interruption
[WARNING] thread Thread[#1116,ForkJoinPool.commonPool-worker-565,5,org.matsim.contrib.ev.example.RunEvExampleWithEvScoring] will linger despite being asked to die via interruption
[WARNING] thread Thread[#1118,ForkJoinPool.commonPool-worker-568,5,org.matsim.contrib.ev.example.RunEvExampleWithEvScoring] will linger despite being asked to die via interruption
[WARNING] thread Thread[#1128,ForkJoinPool.commonPool-worker-572,5,org.matsim.contrib.ev.example.RunEvExampleWithEvScoring] will linger despite being asked to die via interruption
[WARNING] thread Thread[#1131,ForkJoinPool.commonPool-worker-573,5,org.matsim.contrib.ev.example.RunEvExampleWithEvScoring] will linger despite being asked to die via interruption
[WARNING] thread Thread[#1133,ForkJoinPool.commonPool-worker-571,5,org.matsim.contrib.ev.example.RunEvExampleWithEvScoring] will linger despite being asked to die via interruption
[WARNING] thread Thread[#1132,ForkJoinPool.commonPool-worker-574,5,org.matsim.contrib.ev.example.RunEvExampleWithEvScoring] will linger despite being asked to die via interruption
[WARNING] thread Thread[#1129,ForkJoinPool.commonPool-worker-570,5,org.matsim.contrib.ev.example.RunEvExampleWithEvScoring] will linger despite being asked to die via interruption
[WARNING] thread Thread[#1134,ForkJoinPool.commonPool-worker-575,5,org.matsim.contrib.ev.example.RunEvExampleWithEvScoring] will linger despite being asked to die via interruption
[WARNING] thread Thread[#1130,ForkJoinPool.commonPool-worker-569,5,org.matsim.contrib.ev.example.RunEvExampleWithEvScoring] will linger despite being asked to die via interruption
[WARNING] thread Thread[#1135,ForkJoinPool.commonPool-worker-576,5,org.matsim.contrib.ev.example.RunEvExampleWithEvScoring] will linger despite being asked to die via interruption
[WARNING] thread Thread[#1136,ForkJoinPool.commonPool-worker-577,5,org.matsim.contrib.ev.example.RunEvExampleWithEvScoring] will linger despite being asked to die via interruption
[WARNING] thread Thread[#1148,ForkJoinPool.commonPool-worker-580,5,org.matsim.contrib.ev.example.RunEvExampleWithEvScoring] will linger despite being asked to die via interruption
[WARNING] thread Thread[#1160,ForkJoinPool.commonPool-worker-593,5,org.matsim.contrib.ev.example.RunEvExampleWithEvScoring] will linger despite being asked to die via interruption
[WARNING] thread Thread[#1149,ForkJoinPool.commonPool-worker-587,5,org.matsim.contrib.ev.example.RunEvExampleWithEvScoring] will linger despite being asked to die via interruption
[WARNING] thread Thread[#1147,ForkJoinPool.commonPool-worker-582,5,org.matsim.contrib.ev.example.RunEvExampleWithEvScoring] will linger despite being asked to die via interruption
[WARNING] thread Thread[#1155,ForkJoinPool.commonPool-worker-586,5,org.matsim.contrib.ev.example.RunEvExampleWithEvScoring] will linger despite being asked to die via interruption
[WARNING] thread Thread[#1152,ForkJoinPool.commonPool-worker-581,5,org.matsim.contrib.ev.example.RunEvExampleWithEvScoring] will linger despite being asked to die via interruption
[WARNING] thread Thread[#1153,ForkJoinPool.commonPool-worker-585,5,org.matsim.contrib.ev.example.RunEvExampleWithEvScoring] will linger despite being asked to die via interruption
[WARNING] thread Thread[#1154,ForkJoinPool.commonPool-worker-588,5,org.matsim.contrib.ev.example.RunEvExampleWithEvScoring] will linger despite being asked to die via interruption
[WARNING] thread Thread[#1150,ForkJoinPool.commonPool-worker-584,5,org.matsim.contrib.ev.example.RunEvExampleWithEvScoring] will linger despite being asked to die via interruption
[WARNING] thread Thread[#1156,ForkJoinPool.commonPool-worker-589,5,org.matsim.contrib.ev.example.RunEvExampleWithEvScoring] will linger despite being asked to die via interruption
[WARNING] thread Thread[#1151,ForkJoinPool.commonPool-worker-583,5,org.matsim.contrib.ev.example.RunEvExampleWithEvScoring] will linger despite being asked to die via interruption
[WARNING] thread Thread[#1158,ForkJoinPool.commonPool-worker-591,5,org.matsim.contrib.ev.example.RunEvExampleWithEvScoring] will linger despite being asked to die via interruption
[WARNING] thread Thread[#1157,ForkJoinPool.commonPool-worker-590,5,org.matsim.contrib.ev.example.RunEvExampleWithEvScoring] will linger despite being asked to die via interruption
[WARNING] thread Thread[#1159,ForkJoinPool.commonPool-worker-592,5,org.matsim.contrib.ev.example.RunEvExampleWithEvScoring] will linger despite being asked to die via interruption
[WARNING] thread Thread[#1146,ForkJoinPool.commonPool-worker-579,5,org.matsim.contrib.ev.example.RunEvExampleWithEvScoring] will linger despite being asked to die via interruption
[WARNING] thread Thread[#1161,ForkJoinPool.commonPool-worker-594,5,org.matsim.contrib.ev.example.RunEvExampleWithEvScoring] will linger despite being asked to die via interruption
[WARNING] thread Thread[#1162,ForkJoinPool.commonPool-worker-595,5,org.matsim.contrib.ev.example.RunEvExampleWithEvScoring] will linger despite being asked to die via interruption
[WARNING] thread Thread[#1163,ForkJoinPool.commonPool-worker-596,5,org.matsim.contrib.ev.example.RunEvExampleWithEvScoring] will linger despite being asked to die via interruption
[WARNING] thread Thread[#1164,ForkJoinPool.commonPool-worker-597,5,org.matsim.contrib.ev.example.RunEvExampleWithEvScoring] will linger despite being asked to die via interruption
[WARNING] thread Thread[#1165,ForkJoinPool.commonPool-worker-598,5,org.matsim.contrib.ev.example.RunEvExampleWithEvScoring] will linger despite being asked to die via interruption
[WARNING] thread Thread[#1171,ForkJoinPool.commonPool-worker-599,5,org.matsim.contrib.ev.example.RunEvExampleWithEvScoring] will linger despite being asked to die via interruption
[WARNING] thread Thread[#1174,ForkJoinPool.commonPool-worker-604,5,org.matsim.contrib.ev.example.RunEvExampleWithEvScoring] will linger despite being asked to die via interruption
[WARNING] thread Thread[#1173,ForkJoinPool.commonPool-worker-601,5,org.matsim.contrib.ev.example.RunEvExampleWithEvScoring] will linger despite being asked to die via interruption
[WARNING] thread Thread[#1172,ForkJoinPool.commonPool-worker-600,5,org.matsim.contrib.ev.example.RunEvExampleWithEvScoring] will linger despite being asked to die via interruption
[WARNING] thread Thread[#1175,ForkJoinPool.commonPool-worker-603,5,org.matsim.contrib.ev.example.RunEvExampleWithEvScoring] will linger despite being asked to die via interruption
[WARNING] thread Thread[#1176,ForkJoinPool.commonPool-worker-602,5,org.matsim.contrib.ev.example.RunEvExampleWithEvScoring] will linger despite being asked to die via interruption
[WARNING] NOTE: 128 thread(s) did not finish despite being asked to  via interruption. This is not a problem with exec:java, it is a problem with the running code. Although not serious, it should be remedied.
[INFO] ------------------------------------------------------------------------
[INFO] BUILD SUCCESS
[INFO] ------------------------------------------------------------------------
[INFO] Total time:  08:36 h
[INFO] Finished at: 2024-11-09T01:54:01-07:00
[INFO] ------------------------------------------------------------------------
